Help on package libsumo:

NAME
    libsumo

DESCRIPTION
    # Eclipse SUMO, Simulation of Urban MObility; see https://eclipse.dev/sumo
    # Copyright (C) 2018-2023 German Aerospace Center (DLR) and others.
    # This program and the accompanying materials are made available under the
    # terms of the Eclipse Public License 2.0 which is available at
    # https://www.eclipse.org/legal/epl-2.0/
    # This Source Code may also be made available under the following Secondary
    # Licenses when the conditions for such availability set forth in the Eclipse
    # Public License 2.0 are satisfied: GNU General Public License, version 2
    # or later which is available at
    # https://www.gnu.org/licenses/old-licenses/gpl-2.0-standalone.html
    # SPDX-License-Identifier: EPL-2.0 OR GPL-2.0-or-later

PACKAGE CONTENTS
    _libsumo
    libsumo

FUNCTIONS
    TraCILogic_phases_get(...)
    
    TraCILogic_phases_set(...)
    
    addStepListener(listener)
    
    close()
    
    init(port)
    
    isLibsumo()
    
    isLibtraci()
    
    removeStepListener(listenerID)
    
    setLegacyGetLeader(enabled)
    
    set_phases(self, phases)
    
    simulationStep(step=0)
    
    start(cmd, port=None, numRetries=60, label='default', verbose=False, traceFile=None, traceGetters=True, stdout=None, doSwitch=True)
    
    wrapAsClassMethod(func, module)

DATA
    ADD = 128
    ADD_FULL = 133
    APPEND_STAGE = 196
    ARRIVALFLAG_LANE_CURRENT = -2
    ARRIVALFLAG_POS_MAX = -3
    ARRIVALFLAG_POS_RANDOM = -2
    ARRIVALFLAG_SPEED_CURRENT = -2
    AUTOMATIC_CONTEXT_SUBSCRIPTION = 3
    AUTOMATIC_VARIABLES_SUBSCRIPTION = 2
    CMD_ADD_SUBSCRIPTION_FILTER = 126
    CMD_CHANGELANE = 19
    CMD_CHANGESUBLANE = 21
    CMD_CHANGETARGET = 49
    CMD_CLEAR_PENDING_VEHICLES = 148
    CMD_CLOSE = 127
    CMD_EXECUTEMOVE = 125
    CMD_GETVERSION = 0
    CMD_GET_BUSSTOP_VARIABLE = 175
    CMD_GET_CALIBRATOR_VARIABLE = 39
    CMD_GET_CHARGINGSTATION_VARIABLE = 37
    CMD_GET_EDGE_VARIABLE = 170
    CMD_GET_GUI_VARIABLE = 172
    CMD_GET_INDUCTIONLOOP_VARIABLE = 160
    CMD_GET_JUNCTION_VARIABLE = 169
    CMD_GET_LANEAREA_VARIABLE = 173
    CMD_GET_LANE_VARIABLE = 163
    CMD_GET_MEANDATA_VARIABLE = 42
    CMD_GET_MULTIENTRYEXIT_VARIABLE = 161
    CMD_GET_OVERHEADWIRE_VARIABLE = 43
    CMD_GET_PARKINGAREA_VARIABLE = 36
    CMD_GET_PERSON_VARIABLE = 174
    CMD_GET_POI_VARIABLE = 167
    CMD_GET_POLYGON_VARIABLE = 168
    CMD_GET_REROUTER_VARIABLE = 40
    CMD_GET_ROUTEPROBE_VARIABLE = 38
    CMD_GET_ROUTE_VARIABLE = 166
    CMD_GET_SIM_VARIABLE = 171
    CMD_GET_TL_VARIABLE = 162
    CMD_GET_VARIABLESPEEDSIGN_VARIABLE = 41
    CMD_GET_VEHICLETYPE_VARIABLE = 165
    CMD_GET_VEHICLE_VARIABLE = 164
    CMD_INSERT_STOP = 24
    CMD_LOAD = 1
    CMD_LOAD_SIMSTATE = 150
    CMD_MESSAGE = 101
    CMD_OPENGAP = 22
    CMD_REPLACE_STOP = 23
    CMD_REROUTE_EFFORT = 145
    CMD_REROUTE_TO_PARKING = 194
    CMD_REROUTE_TRAVELTIME = 144
    CMD_RESUME = 25
    CMD_SAVE_SIMSTATE = 149
    CMD_SETORDER = 3
    CMD_SET_BUSSTOP_VARIABLE = 207
    CMD_SET_CALIBRATOR_VARIABLE = 71
    CMD_SET_CHARGINGSTATION_VARIABLE = 69
    CMD_SET_EDGE_VARIABLE = 202
    CMD_SET_FLOW = 24
    CMD_SET_GUI_VARIABLE = 204
    CMD_SET_INDUCTIONLOOP_VARIABLE = 192
    CMD_SET_JUNCTION_VARIABLE = 201
    CMD_SET_LANEAREA_VARIABLE = 205
    CMD_SET_LANE_VARIABLE = 195
    CMD_SET_MEANDATA_VARIABLE = 74
    CMD_SET_MULTIENTRYEXIT_VARIABLE = 193
    CMD_SET_OVERHEADWIRE_VARIABLE = 75
    CMD_SET_PARKINGAREA_VARIABLE = 68
    CMD_SET_PERSON_VARIABLE = 206
    CMD_SET_POI_VARIABLE = 199
    CMD_SET_POLYGON_VARIABLE = 200
    CMD_SET_REROUTER_VARIABLE = 72
    CMD_SET_ROUTEPROBE_VARIABLE = 70
    CMD_SET_ROUTE_VARIABLE = 198
    CMD_SET_SIM_VARIABLE = 203
    CMD_SET_TL_VARIABLE = 194
    CMD_SET_VARIABLESPEEDSIGN_VARIABLE = 73
    CMD_SET_VEHICLETYPE_VARIABLE = 197
    CMD_SET_VEHICLE_VARIABLE = 196
    CMD_SIMSTEP = 2
    CMD_SLOWDOWN = 20
    CMD_STOP = 18
    CMD_SUBSCRIBE_BUSSTOP_CONTEXT = 143
    CMD_SUBSCRIBE_BUSSTOP_VARIABLE = 223
    CMD_SUBSCRIBE_CALIBRATOR_CONTEXT = 7
    CMD_SUBSCRIBE_CALIBRATOR_VARIABLE = 87
    CMD_SUBSCRIBE_CHARGINGSTATION_CONTEXT = 5
    CMD_SUBSCRIBE_CHARGINGSTATION_VARIABLE = 85
    CMD_SUBSCRIBE_EDGE_CONTEXT = 138
    CMD_SUBSCRIBE_EDGE_VARIABLE = 218
    CMD_SUBSCRIBE_GUI_CONTEXT = 140
    CMD_SUBSCRIBE_GUI_VARIABLE = 220
    CMD_SUBSCRIBE_INDUCTIONLOOP_CONTEXT = 128
    CMD_SUBSCRIBE_INDUCTIONLOOP_VARIABLE = 208
    CMD_SUBSCRIBE_JUNCTION_CONTEXT = 137
    CMD_SUBSCRIBE_JUNCTION_VARIABLE = 217
    CMD_SUBSCRIBE_LANEAREA_CONTEXT = 141
    CMD_SUBSCRIBE_LANEAREA_VARIABLE = 221
    CMD_SUBSCRIBE_LANE_CONTEXT = 131
    CMD_SUBSCRIBE_LANE_VARIABLE = 211
    CMD_SUBSCRIBE_MEANDATA_CONTEXT = 10
    CMD_SUBSCRIBE_MEANDATA_VARIABLE = 90
    CMD_SUBSCRIBE_MULTIENTRYEXIT_CONTEXT = 129
    CMD_SUBSCRIBE_MULTIENTRYEXIT_VARIABLE = 209
    CMD_SUBSCRIBE_OVERHEADWIRE_CONTEXT = 11
    CMD_SUBSCRIBE_OVERHEADWIRE_VARIABLE = 91
    CMD_SUBSCRIBE_PARKINGAREA_CONTEXT = 4
    CMD_SUBSCRIBE_PARKINGAREA_VARIABLE = 84
    CMD_SUBSCRIBE_PERSON_CONTEXT = 142
    CMD_SUBSCRIBE_PERSON_VARIABLE = 222
    CMD_SUBSCRIBE_POI_CONTEXT = 135
    CMD_SUBSCRIBE_POI_VARIABLE = 215
    CMD_SUBSCRIBE_POLYGON_CONTEXT = 136
    CMD_SUBSCRIBE_POLYGON_VARIABLE = 216
    CMD_SUBSCRIBE_REROUTER_CONTEXT = 8
    CMD_SUBSCRIBE_REROUTER_VARIABLE = 88
    CMD_SUBSCRIBE_ROUTEPROBE_CONTEXT = 6
    CMD_SUBSCRIBE_ROUTEPROBE_VARIABLE = 86
    CMD_SUBSCRIBE_ROUTE_CONTEXT = 134
    CMD_SUBSCRIBE_ROUTE_VARIABLE = 214
    CMD_SUBSCRIBE_SIM_CONTEXT = 139
    CMD_SUBSCRIBE_SIM_VARIABLE = 219
    CMD_SUBSCRIBE_TL_CONTEXT = 130
    CMD_SUBSCRIBE_TL_VARIABLE = 210
    CMD_SUBSCRIBE_VARIABLESPEEDSIGN_CONTEXT = 9
    CMD_SUBSCRIBE_VARIABLESPEEDSIGN_VARIABLE = 89
    CMD_SUBSCRIBE_VEHICLETYPE_CONTEXT = 133
    CMD_SUBSCRIBE_VEHICLETYPE_VARIABLE = 213
    CMD_SUBSCRIBE_VEHICLE_CONTEXT = 132
    CMD_SUBSCRIBE_VEHICLE_VARIABLE = 212
    CMD_TAXI_DISPATCH = 33
    COPY = 136
    DEFAULT_NUM_RETRIES = 60
    DEFAULT_VIEW = 'View #0'
    DEPARTFLAG_BEGIN = -5
    DEPARTFLAG_CONTAINER_TRIGGERED = -2
    DEPARTFLAG_LANE_ALLOWED_FREE = -4
    DEPARTFLAG_LANE_BEST_FREE = -5
    DEPARTFLAG_LANE_FIRST_ALLOWED = -6
    DEPARTFLAG_LANE_FREE = -3
    DEPARTFLAG_LANE_RANDOM = -2
    DEPARTFLAG_NOW = -3
    DEPARTFLAG_POS_BASE = -4
    DEPARTFLAG_POS_FREE = -3
    DEPARTFLAG_POS_LAST = -5
    DEPARTFLAG_POS_RANDOM = -2
    DEPARTFLAG_POS_RANDOM_FREE = -6
    DEPARTFLAG_SPEED_MAX = -3
    DEPARTFLAG_SPEED_RANDOM = -2
    DEPARTFLAG_SPLIT = -4
    DEPARTFLAG_TRIGGERED = -1
    DISTANCE_REQUEST = 131
    DOMAINS = [<class 'libsumo.libsumo.busstop'>, <class 'libsumo.libsumo....
    FILTER_TYPE_DOWNSTREAM_DIST = 3
    FILTER_TYPE_FIELD_OF_VISION = 10
    FILTER_TYPE_LANES = 1
    FILTER_TYPE_LATERAL_DIST = 11
    FILTER_TYPE_LEAD_FOLLOW = 5
    FILTER_TYPE_NONE = 0
    FILTER_TYPE_NOOPPOSITE = 2
    FILTER_TYPE_TURN = 7
    FILTER_TYPE_UPSTREAM_DIST = 4
    FILTER_TYPE_VCLASS = 8
    FILTER_TYPE_VTYPE = 9
    FIND_INTERMODAL_ROUTE = 135
    FIND_ROUTE = 134
    GENERIC_ATTRIBUTE = 3
    ID_COUNT = 1
    INVALID_DOUBLE_VALUE = -1073741824.0
    INVALID_INT_VALUE = -1073741824
    JAM_LENGTH_METERS = 25
    JAM_LENGTH_VEHICLE = 24
    LANECHANGE_LEFT = 1
    LANECHANGE_RIGHT = -1
    LANE_ALLOWED = 52
    LANE_CHANGES = 60
    LANE_DISALLOWED = 53
    LANE_EDGE_ID = 49
    LANE_LINKS = 51
    LANE_LINK_NUMBER = 48
    LAST_STEP_LENGTH = 21
    LAST_STEP_MEAN_SPEED = 17
    LAST_STEP_OCCUPANCY = 19
    LAST_STEP_PERSON_ID_LIST = 26
    LAST_STEP_TIME_SINCE_DETECTION = 22
    LAST_STEP_VEHICLE_DATA = 23
    LAST_STEP_VEHICLE_HALTING_NUMBER = 20
    LAST_STEP_VEHICLE_ID_LIST = 18
    LAST_STEP_VEHICLE_NUMBER = 16
    MAX_ORDER = 1073741824
    MOVE_AUTOMATIC = 0
    MOVE_NORMAL = 2
    MOVE_TELEPORT = 1
    MOVE_TO_XY = 180
    POSITION_2D = 1
    POSITION_3D = 3
    POSITION_CONVERSION = 130
    POSITION_LON_LAT = 0
    POSITION_LON_LAT_ALT = 2
    POSITION_ROADMAP = 4
    REMOVE = 129
    REMOVE_ARRIVED = 2
    REMOVE_PARKING = 1
    REMOVE_STAGE = 197
    REMOVE_TELEPORT = 0
    REMOVE_TELEPORT_ARRIVED = 4
    REMOVE_VAPORIZED = 3
    REPLACE_STAGE = 205
    REQUEST_AIRDIST = 0
    REQUEST_DRIVINGDIST = 1
    RESPONSE_GET_BUSSTOP_VARIABLE = 191
    RESPONSE_GET_CALIBRATOR_VARIABLE = 55
    RESPONSE_GET_CHARGINGSTATION_VARIABLE = 53
    RESPONSE_GET_EDGE_VARIABLE = 186
    RESPONSE_GET_GUI_VARIABLE = 188
    RESPONSE_GET_INDUCTIONLOOP_VARIABLE = 176
    RESPONSE_GET_JUNCTION_VARIABLE = 185
    RESPONSE_GET_LANEAREA_VARIABLE = 189
    RESPONSE_GET_LANE_VARIABLE = 179
    RESPONSE_GET_MEANDATA_VARIABLE = 58
    RESPONSE_GET_MULTIENTRYEXIT_VARIABLE = 177
    RESPONSE_GET_OVERHEADWIRE_VARIABLE = 59
    RESPONSE_GET_PARKINGAREA_VARIABLE = 52
    RESPONSE_GET_PERSON_VARIABLE = 190
    RESPONSE_GET_POI_VARIABLE = 183
    RESPONSE_GET_POLYGON_VARIABLE = 184
    RESPONSE_GET_REROUTER_VARIABLE = 56
    RESPONSE_GET_ROUTEPROBE_VARIABLE = 54
    RESPONSE_GET_ROUTE_VARIABLE = 182
    RESPONSE_GET_SIM_VARIABLE = 187
    RESPONSE_GET_TL_VARIABLE = 178
    RESPONSE_GET_VARIABLESPEEDSIGN_VARIABLE = 57
    RESPONSE_GET_VEHICLETYPE_VARIABLE = 181
    RESPONSE_GET_VEHICLE_VARIABLE = 180
    RESPONSE_SUBSCRIBE_BUSSTOP_CONTEXT = 159
    RESPONSE_SUBSCRIBE_BUSSTOP_VARIABLE = 239
    RESPONSE_SUBSCRIBE_CALIBRATOR_CONTEXT = 23
    RESPONSE_SUBSCRIBE_CALIBRATOR_VARIABLE = 103
    RESPONSE_SUBSCRIBE_CHARGINGSTATION_CONTEXT = 21
    RESPONSE_SUBSCRIBE_CHARGINGSTATION_VARIABLE = 101
    RESPONSE_SUBSCRIBE_EDGE_CONTEXT = 154
    RESPONSE_SUBSCRIBE_EDGE_VARIABLE = 234
    RESPONSE_SUBSCRIBE_GUI_CONTEXT = 156
    RESPONSE_SUBSCRIBE_GUI_VARIABLE = 236
    RESPONSE_SUBSCRIBE_INDUCTIONLOOP_CONTEXT = 144
    RESPONSE_SUBSCRIBE_INDUCTIONLOOP_VARIABLE = 224
    RESPONSE_SUBSCRIBE_JUNCTION_CONTEXT = 153
    RESPONSE_SUBSCRIBE_JUNCTION_VARIABLE = 233
    RESPONSE_SUBSCRIBE_LANEAREA_CONTEXT = 157
    RESPONSE_SUBSCRIBE_LANEAREA_VARIABLE = 237
    RESPONSE_SUBSCRIBE_LANE_CONTEXT = 147
    RESPONSE_SUBSCRIBE_LANE_VARIABLE = 227
    RESPONSE_SUBSCRIBE_MEANDATA_CONTEXT = 26
    RESPONSE_SUBSCRIBE_MEANDATA_VARIABLE = 106
    RESPONSE_SUBSCRIBE_MULTIENTRYEXIT_CONTEXT = 145
    RESPONSE_SUBSCRIBE_MULTIENTRYEXIT_VARIABLE = 225
    RESPONSE_SUBSCRIBE_OVERHEADWIRE_CONTEXT = 27
    RESPONSE_SUBSCRIBE_OVERHEADWIRE_VARIABLE = 107
    RESPONSE_SUBSCRIBE_PARKINGAREA_CONTEXT = 20
    RESPONSE_SUBSCRIBE_PARKINGAREA_VARIABLE = 100
    RESPONSE_SUBSCRIBE_PERSON_CONTEXT = 158
    RESPONSE_SUBSCRIBE_PERSON_VARIABLE = 238
    RESPONSE_SUBSCRIBE_POI_CONTEXT = 151
    RESPONSE_SUBSCRIBE_POI_VARIABLE = 231
    RESPONSE_SUBSCRIBE_POLYGON_CONTEXT = 152
    RESPONSE_SUBSCRIBE_POLYGON_VARIABLE = 232
    RESPONSE_SUBSCRIBE_REROUTER_CONTEXT = 24
    RESPONSE_SUBSCRIBE_REROUTER_VARIABLE = 104
    RESPONSE_SUBSCRIBE_ROUTEPROBE_CONTEXT = 22
    RESPONSE_SUBSCRIBE_ROUTEPROBE_VARIABLE = 102
    RESPONSE_SUBSCRIBE_ROUTE_CONTEXT = 150
    RESPONSE_SUBSCRIBE_ROUTE_VARIABLE = 230
    RESPONSE_SUBSCRIBE_SIM_CONTEXT = 155
    RESPONSE_SUBSCRIBE_SIM_VARIABLE = 235
    RESPONSE_SUBSCRIBE_TL_CONTEXT = 146
    RESPONSE_SUBSCRIBE_TL_VARIABLE = 226
    RESPONSE_SUBSCRIBE_VARIABLESPEEDSIGN_CONTEXT = 25
    RESPONSE_SUBSCRIBE_VARIABLESPEEDSIGN_VARIABLE = 105
    RESPONSE_SUBSCRIBE_VEHICLETYPE_CONTEXT = 149
    RESPONSE_SUBSCRIBE_VEHICLETYPE_VARIABLE = 229
    RESPONSE_SUBSCRIBE_VEHICLE_CONTEXT = 148
    RESPONSE_SUBSCRIBE_VEHICLE_VARIABLE = 228
    ROUTING_MODE_AGGREGATED = 1
    ROUTING_MODE_AGGREGATED_CUSTOM = 4
    ROUTING_MODE_COMBINED = 3
    ROUTING_MODE_DEFAULT = 0
    ROUTING_MODE_EFFORT = 2
    RTYPE_ERR = 255
    RTYPE_NOTIMPLEMENTED = 1
    RTYPE_OK = 0
    SHARED_PTR_DISOWN = 0
    SPLIT_TAXI_RESERVATIONS = 199
    STAGE_ACCESS = 4
    STAGE_DRIVING = 3
    STAGE_TRANSHIP = 6
    STAGE_TRIP = 5
    STAGE_WAITING = 1
    STAGE_WAITING_FOR_DEPART = 0
    STAGE_WALKING = 2
    STOP_BUS_STOP = 8
    STOP_CHARGING_STATION = 32
    STOP_CONTAINER_STOP = 16
    STOP_CONTAINER_TRIGGERED = 4
    STOP_DEFAULT = 0
    STOP_OVERHEAD_WIRE = 128
    STOP_PARKING = 1
    STOP_PARKING_AREA = 64
    STOP_TRIGGERED = 2
    TL_BLOCKING_VEHICLES = 37
    TL_COMPLETE_DEFINITION_RYG = 43
    TL_COMPLETE_PROGRAM_RYG = 44
    TL_CONSTRAINT = 47
    TL_CONSTRAINT_BYFOE = 52
    TL_CONSTRAINT_REMOVE = 53
    TL_CONSTRAINT_SWAP = 50
    TL_CONSTRAINT_UPDATE = 54
    TL_CONTROLLED_JUNCTIONS = 42
    TL_CONTROLLED_LANES = 38
    TL_CONTROLLED_LINKS = 39
    TL_CURRENT_PHASE = 40
    TL_CURRENT_PROGRAM = 41
    TL_EXTERNAL_STATE = 46
    TL_NEXT_SWITCH = 45
    TL_PHASE_DURATION = 36
    TL_PHASE_INDEX = 34
    TL_PRIORITY_VEHICLES = 49
    TL_PROGRAM = 35
    TL_RED_YELLOW_GREEN_STATE = 32
    TL_RIVAL_VEHICLES = 48
    TRACI_ID_LIST = 0
    TRACI_VERSION = 20
    TRAFFICLIGHT_TYPE_ACTUATED = 3
    TRAFFICLIGHT_TYPE_DELAYBASED = 4
    TRAFFICLIGHT_TYPE_STATIC = 0
    TYPE_BYTE = 8
    TYPE_COLOR = 17
    TYPE_COMPOUND = 15
    TYPE_DOUBLE = 11
    TYPE_DOUBLELIST = 16
    TYPE_INTEGER = 9
    TYPE_POLYGON = 6
    TYPE_STRING = 12
    TYPE_STRINGLIST = 14
    TYPE_UBYTE = 7
    VAR_ACCEL = 70
    VAR_ACCELERATION = 114
    VAR_ACCUMULATED_WAITING_TIME = 135
    VAR_ACTIONSTEPLENGTH = 125
    VAR_ADD_DYNAMICS = 92
    VAR_ALLOWED_SPEED = 183
    VAR_ANGLE = 67
    VAR_APPARENT_DECEL = 124
    VAR_ARRIVALLANE = 118
    VAR_ARRIVALPOS = 117
    VAR_ARRIVALSPEED = 119
    VAR_ARRIVED_PERSONS_IDS = 39
    VAR_ARRIVED_PERSONS_NUMBER = 38
    VAR_ARRIVED_VEHICLES_IDS = 122
    VAR_ARRIVED_VEHICLES_NUMBER = 121
    VAR_BEGIN = 28
    VAR_BEST_LANES = 178
    VAR_BOARDING_DURATION = 47
    VAR_BUS_STOP_ID_LIST = 159
    VAR_BUS_STOP_WAITING = 103
    VAR_BUS_STOP_WAITING_IDS = 239
    VAR_CO2EMISSION = 96
    VAR_COEMISSION = 97
    VAR_COLLIDING_VEHICLES_IDS = 129
    VAR_COLLIDING_VEHICLES_NUMBER = 128
    VAR_COLLISIONS = 35
    VAR_COLOR = 69
    VAR_CURRENT_TRAVELTIME = 90
    VAR_DECEL = 71
    VAR_DELTA_T = 123
    VAR_DEPARTED_PERSONS_IDS = 37
    VAR_DEPARTED_PERSONS_NUMBER = 36
    VAR_DEPARTED_VEHICLES_IDS = 116
    VAR_DEPARTED_VEHICLES_NUMBER = 115
    VAR_DEPARTURE = 58
    VAR_DEPART_DELAY = 59
    VAR_DISTANCE = 132
    VAR_EDGES = 84
    VAR_EDGE_EFFORT = 89
    VAR_EDGE_TRAVELTIME = 88
    VAR_ELECTRICITYCONSUMPTION = 113
    VAR_EMERGENCYSTOPPING_VEHICLES_IDS = 138
    VAR_EMERGENCYSTOPPING_VEHICLES_NUMBER = 137
    VAR_EMERGENCY_DECEL = 123
    VAR_EMISSIONCLASS = 74
    VAR_END = 29
    VAR_EXIT_LANES = 49
    VAR_EXIT_POSITIONS = 67
    VAR_FILL = 85
    VAR_FOES = 55
    VAR_FOLLOWER = 120
    VAR_FOLLOW_SPEED = 28
    VAR_FRICTION = 61
    VAR_FUELCONSUMPTION = 101
    VAR_HAS_VIEW = 167
    VAR_HCEMISSION = 98
    VAR_HEIGHT = 188
    VAR_HIGHLIGHT = 108
    VAR_IMAGEFILE = 147
    VAR_IMPATIENCE = 38
    VAR_IMPERFECTION = 93
    VAR_INSERTED = 21
    VAR_INTERVAL_IDS = 38
    VAR_INTERVAL_MAX_JAM_LENGTH_METERS = 50
    VAR_INTERVAL_NUMBER = 37
    VAR_INTERVAL_OCCUPANCY = 35
    VAR_INTERVAL_SPEED = 36
    VAR_LANECHANGE_MODE = 182
    VAR_LANEPOSITION = 86
    VAR_LANEPOSITION_LAT = 184
    VAR_LANES = 48
    VAR_LANE_ID = 81
    VAR_LANE_INDEX = 82
    VAR_LASTACTIONTIME = 127
    VAR_LAST_INTERVAL_IDS = 42
    VAR_LAST_INTERVAL_MAX_JAM_LENGTH_METERS = 51
    VAR_LAST_INTERVAL_MEAN_HALTING_NUMBER = 32
    VAR_LAST_INTERVAL_NUMBER = 41
    VAR_LAST_INTERVAL_OCCUPANCY = 39
    VAR_LAST_INTERVAL_SPEED = 40
    VAR_LAST_INTERVAL_TRAVELTIME = 88
    VAR_LAST_INTERVAL_VEHICLE_NUMBER = 33
    VAR_LATALIGNMENT = 185
    VAR_LEADER = 104
    VAR_LENGTH = 68
    VAR_LINE = 189
    VAR_LOADED_LIST = 36
    VAR_LOADED_VEHICLES_IDS = 114
    VAR_LOADED_VEHICLES_NUMBER = 113
    VAR_MAXSPEED = 65
    VAR_MAXSPEED_LAT = 186
    VAR_MINGAP = 76
    VAR_MINGAP_LAT = 187
    VAR_MIN_EXPECTED_VEHICLES = 125
    VAR_MOVE_TO = 92
    VAR_NAME = 27
    VAR_NEIGHBORS = 191
    VAR_NET_BOUNDING_BOX = 124
    VAR_NEXT_EDGE = 193
    VAR_NEXT_LINKS = 51
    VAR_NEXT_STOPS = 115
    VAR_NEXT_STOPS2 = 116
    VAR_NEXT_TLS = 112
    VAR_NOISEEMISSION = 102
    VAR_NOXEMISSION = 100
    VAR_OPTION = 50
    VAR_PARAMETER = 126
    VAR_PARAMETER_WITH_KEY = 62
    VAR_PARKING_ENDING_VEHICLES_IDS = 111
    VAR_PARKING_ENDING_VEHICLES_NUMBER = 110
    VAR_PARKING_MANEUVERING_VEHICLES_IDS = 59
    VAR_PARKING_MANEUVERING_VEHICLES_NUMBER = 58
    VAR_PARKING_STARTING_VEHICLES_IDS = 109
    VAR_PARKING_STARTING_VEHICLES_NUMBER = 108
    VAR_PASSED = 20
    VAR_PENDING_VEHICLES = 148
    VAR_PERSON_CAPACITY = 56
    VAR_PERSON_NUMBER = 103
    VAR_PMXEMISSION = 99
    VAR_POSITION = 66
    VAR_POSITION3D = 57
    VAR_PREV_SPEED = 60
    VAR_REMOVED = 22
    VAR_ROAD_ID = 80
    VAR_ROUTE = 87
    VAR_ROUTE_ID = 83
    VAR_ROUTE_INDEX = 105
    VAR_ROUTE_PROBE = 23
    VAR_ROUTE_VALID = 146
    VAR_ROUTING_MODE = 137
    VAR_SAMPLE_CURRENT = 33
    VAR_SAMPLE_LAST = 32
    VAR_SCALE = 142
    VAR_SCREENSHOT = 165
    VAR_SECURE_GAP = 30
    VAR_SELECT = 164
    VAR_SHAPE = 78
    VAR_SHAPECLASS = 75
    VAR_SIGNALS = 91
    VAR_SLOPE = 54
    VAR_SPEED = 64
    VAR_SPEEDSETMODE = 179
    VAR_SPEED_DEVIATION = 95
    VAR_SPEED_FACTOR = 94
    VAR_SPEED_LAT = 50
    VAR_SPEED_WITHOUT_TRACI = 177
    VAR_STAGE = 192
    VAR_STAGES_REMAINING = 194
    VAR_STOPSTATE = 181
    VAR_STOP_ARRIVALDELAY = 34
    VAR_STOP_DELAY = 31
    VAR_STOP_ENDING_VEHICLES_IDS = 107
    VAR_STOP_ENDING_VEHICLES_NUMBER = 106
    VAR_STOP_PARAMETER = 85
    VAR_STOP_SPEED = 29
    VAR_STOP_STARTING_VEHICLES_IDS = 105
    VAR_STOP_STARTING_VEHICLES_NUMBER = 104
    VAR_TAU = 72
    VAR_TAXI_FLEET = 32
    VAR_TAXI_RESERVATIONS = 198
    VAR_TELEPORTING_LIST = 37
    VAR_TELEPORT_ENDING_VEHICLES_IDS = 120
    VAR_TELEPORT_ENDING_VEHICLES_NUMBER = 119
    VAR_TELEPORT_STARTING_VEHICLES_IDS = 118
    VAR_TELEPORT_STARTING_VEHICLES_NUMBER = 117
    VAR_TIME = 102
    VAR_TIMELOSS = 140
    VAR_TIME_STEP = 112
    VAR_TRACK_VEHICLE = 166
    VAR_TYPE = 79
    VAR_UPDATE_BESTLANES = 106
    VAR_VEHICLE = 195
    VAR_VEHICLECLASS = 73
    VAR_VEHSPERHOUR = 19
    VAR_VIA = 190
    VAR_VIEW_BOUNDARY = 163
    VAR_VIEW_OFFSET = 161
    VAR_VIEW_SCHEMA = 162
    VAR_VIEW_ZOOM = 160
    VAR_VIRTUAL_DETECTION = 34
    VAR_VTYPES = 30
    VAR_WAITING_TIME = 122
    VAR_WIDTH = 77
    cvar = <Swig global variables>

FILE
    /home/ahoope5/anaconda3/envs/gym/lib/python3.11/site-packages/libsumo/__init__.py


