<?xml version="1.0" encoding="UTF-8"?>

<!-- generated on 2023-05-30 21:39:38.908371 by generateParkingAreas.py UNKNOWN
<configuration>
    <net-file value="nets/3x3.net.xml"/>
    <length value="5.0"/>
    <min value="1"/>
    <max value="2"/>
</configuration>
-->

<additional xmlns:xsi="http://www.w3.org/2001/XMLSchema-instance" xsi:noNamespaceSchemaLocation="http://sumo.dlr.de/xsd/additional_file.xsd">
    <parkingArea id="pa10e" lane="10e_1" roadsideCapacity="2" length="5.0"/>
    <parkingArea id="pa10w" lane="10w_1" roadsideCapacity="2" length="5.0"/>
    <parkingArea id="pa11n" lane="11n_1" roadsideCapacity="2" length="5.0"/>
    <parkingArea id="pa11s" lane="11s_1" roadsideCapacity="2" length="5.0"/>
    <parkingArea id="pa12n" lane="12n_1" roadsideCapacity="2" length="5.0"/>
    <parkingArea id="pa12s" lane="12s_1" roadsideCapacity="2" length="5.0"/>
    <parkingArea id="pa13n" lane="13n_1" roadsideCapacity="2" length="5.0"/>
    <parkingArea id="pa13s" lane="13s_1" roadsideCapacity="2" length="5.0"/>
    <parkingArea id="pa14n" lane="14n_1" roadsideCapacity="2" length="5.0"/>
    <parkingArea id="pa14s" lane="14s_1" roadsideCapacity="2" length="5.0"/>
    <parkingArea id="pa15e" lane="15e_1" roadsideCapacity="2" length="5.0"/>
    <parkingArea id="pa15w" lane="15w_1" roadsideCapacity="2" length="5.0"/>
    <parkingArea id="pa16e" lane="16e_1" roadsideCapacity="2" length="5.0"/>
    <parkingArea id="pa16w" lane="16w_1" roadsideCapacity="2" length="5.0"/>
    <parkingArea id="pa17e" lane="17e_1" roadsideCapacity="2" length="5.0"/>
    <parkingArea id="pa17w" lane="17w_1" roadsideCapacity="2" length="5.0"/>
    <parkingArea id="pa18n" lane="18n_1" roadsideCapacity="2" length="5.0"/>
    <parkingArea id="pa18s" lane="18s_1" roadsideCapacity="2" length="5.0"/>
    <parkingArea id="pa19n" lane="19n_1" roadsideCapacity="2" length="5.0"/>
    <parkingArea id="pa19s" lane="19s_1" roadsideCapacity="2" length="5.0"/>
    <parkingArea id="pa1e" lane="1e_1" roadsideCapacity="2" length="5.0"/>
    <parkingArea id="pa1w" lane="1w_1" roadsideCapacity="2" length="5.0"/>
    <parkingArea id="pa20n" lane="20n_1" roadsideCapacity="2" length="5.0"/>
    <parkingArea id="pa20s" lane="20s_1" roadsideCapacity="2" length="5.0"/>
    <parkingArea id="pa21n" lane="21n_1" roadsideCapacity="2" length="5.0"/>
    <parkingArea id="pa21s" lane="21s_1" roadsideCapacity="2" length="5.0"/>
    <parkingArea id="pa22e" lane="22e_1" roadsideCapacity="2" length="5.0"/>
    <parkingArea id="pa22w" lane="22w_1" roadsideCapacity="2" length="5.0"/>
    <parkingArea id="pa23e" lane="23e_1" roadsideCapacity="2" length="5.0"/>
    <parkingArea id="pa23w" lane="23w_1" roadsideCapacity="2" length="5.0"/>
    <parkingArea id="pa24e" lane="24e_1" roadsideCapacity="2" length="5.0"/>
    <parkingArea id="pa24w" lane="24w_1" roadsideCapacity="2" length="5.0"/>
    <parkingArea id="pa2e" lane="2e_1" roadsideCapacity="2" length="5.0"/>
    <parkingArea id="pa2w" lane="2w_1" roadsideCapacity="2" length="5.0"/>
    <parkingArea id="pa3e" lane="3e_1" roadsideCapacity="2" length="5.0"/>
    <parkingArea id="pa3w" lane="3w_1" roadsideCapacity="2" length="5.0"/>
    <parkingArea id="pa4n" lane="4n_1" roadsideCapacity="2" length="5.0"/>
    <parkingArea id="pa4s" lane="4s_1" roadsideCapacity="2" length="5.0"/>
    <parkingArea id="pa5n" lane="5n_1" roadsideCapacity="2" length="5.0"/>
    <parkingArea id="pa5s" lane="5s_1" roadsideCapacity="2" length="5.0"/>
    <parkingArea id="pa6n" lane="6n_1" roadsideCapacity="2" length="5.0"/>
    <parkingArea id="pa6s" lane="6s_1" roadsideCapacity="2" length="5.0"/>
    <parkingArea id="pa7n" lane="7n_1" roadsideCapacity="2" length="5.0"/>
    <parkingArea id="pa7s" lane="7s_1" roadsideCapacity="2" length="5.0"/>
    <parkingArea id="pa8e" lane="8e_1" roadsideCapacity="2" length="5.0"/>
    <parkingArea id="pa8w" lane="8w_1" roadsideCapacity="2" length="5.0"/>
    <parkingArea id="pa9e" lane="9e_1" roadsideCapacity="2" length="5.0"/>
    <parkingArea id="pa9w" lane="9w_1" roadsideCapacity="2" length="5.0"/>
</additional>
