<?xml version="1.0" encoding="UTF-8"?>

<!-- generated on 2023-09-03 13:57:13.278006 by generateParkingAreaRerouters.py UNKNOWN
<configuration>
    <parking-areas value="/home/aaron/fromGit/multimodal-rl/Experiments/3x3/Nets/parkingareas.add.xml"/>
    <sumo-net value="/home/aaron/fromGit/multimodal-rl/Experiments/3x3/Nets/3x3.net.xml"/>
    <output value="/home/aaron/fromGit/multimodal-rl/Experiments/3x3/Nets/3x3.add.xml"/>
</configuration>
-->

<additional xmlns:xsi="http://www.w3.org/2001/XMLSchema-instance" xsi:noNamespaceSchemaLocation="http://sumo.dlr.de/xsd/additional_file.xsd">

    

    <rerouter id="pa10e" edges="10e">
        <interval begin="0.0" end="86400">
            <!-- in order of distance --> 
            <parkingAreaReroute id="pa10e" visible="true"/> <!-- dist: 0.0 -->
            
            <parkingAreaReroute id="pa10w" visible="true"/> <!-- dist: 4.7 -->
            
        </interval>
    </rerouter>

    <rerouter id="pa10w" edges="10w">
        <interval begin="0.0" end="86400">
            <!-- in order of distance --> 
            <parkingAreaReroute id="pa10w" visible="true"/> <!-- dist: 0.0 -->
            
            <parkingAreaReroute id="pa10e" visible="true"/> <!-- dist: 4.7 -->
           
        </interval>
    </rerouter>

    
</additional>
