<?xml version="1.0" encoding="UTF-8"?>

<!-- generated on 2023-08-07 10:34:50 by Eclipse SUMO netedit Version 1.18.0
-->

<additional xmlns:xsi="http://www.w3.org/2001/XMLSchema-instance" xsi:noNamespaceSchemaLocation="http://sumo.dlr.de/xsd/additional_file.xsd">
    <!-- StoppingPlaces -->
    <busStop id="bs_0" lane="AB30AC30_0" startPos="66.72" endPos="76.72"/>
    <busStop id="bs_1" lane="AP14AQ14_0" startPos="67.71" endPos="77.71"/>
    <busStop id="bs_2" lane="AY5AZ5_0" startPos="70.40" endPos="80.40"/>
    <busStop id="bs_3" lane="BD1BE1_0" startPos="73.07" endPos="83.07"/>
</additional>
