<routes xmlns:xsi="http://www.w3.org/2001/XMLSchema-instance" xsi:noNamespaceSchemaLocation="http://sumo.dlr.de/xsd/routes_file.xsd">
    <!-- VTypes -->
    <vType id="taxi" vClass="taxi" personCapacity="8">
        <param key="has.taxi.device" value="true"/>
        <param key="has.vehroute.device" value="true"/>
       
        
        
    </vType>
    <!-- Routes -->
    <route id="r_0" edges="9e"/>

    <rerouter id="rr0" edges="EO">
      <interval begin="0" end="2000">
         <parkingAreaReroute id="pa_1"/>
       
      </interval>
   </rerouter>
   
    
    <!-- Vehicles, persons and containers (sorted by depart) -->
    <vehicle id="taxi" type="taxi" depart="0.00" route="r_0" stands-rerouter="rr0" >
     <!-- <param key="device.taxi.stands-rerouter" value="rr0"/> -->
     <!-- <parm key ="device.taxi.idle-algorithm" value="taxistand"/> -->
    
    </vehicle>
    <person id="p_0" depart="0.00">
        <ride from="2e" to="24w" lines="taxi"/>
    </person>
    <person id="p_2" depart="0.00">
        <ride from="2e" to="22w" lines="ANY"/>
    </person>
    <person id="p_3" depart="0.00">
        <ride from="1e" to="20n" lines="ANY"/>
    </person>
    <person id="p_4" depart="0.00">
        <ride from="1w" to="20n" lines="ANY"/>
    </person>
</routes>