<?xml version="1.0" encoding="UTF-8"?>

<!-- generated on 2023-09-03 13:58:34 by Eclipse SUMO netedit Version 1.18.0
-->

<additional xmlns:xsi="http://www.w3.org/2001/XMLSchema-instance" xsi:noNamespaceSchemaLocation="http://sumo.dlr.de/xsd/additional_file.xsd">
    <!-- StoppingPlaces -->
    
    <parkingArea id="pa10e" lane="10e_1" roadsideCapacity="2" length="5.00"/>
    <parkingArea id="pa10w" lane="10w_1" roadsideCapacity="2" length="5.00"/>
    
</additional>
