<?xml version="1.0" encoding="UTF-8"?>

<!-- generated on 2023-05-31 11:03:51 by Eclipse SUMO netedit Version 1.16.0
-->

<routes xmlns:xsi="http://www.w3.org/2001/XMLSchema-instance" xsi:noNamespaceSchemaLocation="http://sumo.dlr.de/xsd/routes_file.xsd">
    <!-- VTypes -->
    
    
</routes>
