<?xml version="1.0" encoding="UTF-8"?>

<!-- generated on 2023-05-31 11:20:37.166017 by generateParkingAreaRerouters.py UNKNOWN
<configuration>
    <parking-areas value="nets/osm2/parkingareas.add.xml"/>
    <sumo-net value="nets/osm2/osm.net.xml.gz"/>
    <max-number-alternatives value="1"/>
    <max-distance-alternatives value="1.0"/>
    <max-distance-visibility-true value="2.0"/>
    <output value="nets/osm2/out.xml"/>
</configuration>
-->

<additional xmlns:xsi="http://www.w3.org/2001/XMLSchema-instance" xsi:noNamespaceSchemaLocation="http://sumo.dlr.de/xsd/additional_file.xsd">
</additional>
