<?xml version="1.0" encoding="UTF-8"?>

<!-- generated on 2023-05-31 11:16:39.414260 by generateParkingAreas.py UNKNOWN
<configuration>
    <net-file value="nets/osm2/osm.polycfg"/>
    <probability value="0.1"/>
    <length value="5.0"/>
    <max value="2"/>
</configuration>
-->

<additional xmlns:xsi="http://www.w3.org/2001/XMLSchema-instance" xsi:noNamespaceSchemaLocation="http://sumo.dlr.de/xsd/additional_file.xsd">
</additional>
