<?xml version="1.0" encoding="UTF-8"?>

<!-- generated on 2023-08-07 10:34:50 by Eclipse SUMO netedit Version 1.18.0
-->

<routes xmlns:xsi="http://www.w3.org/2001/XMLSchema-instance" xsi:noNamespaceSchemaLocation="http://sumo.dlr.de/xsd/routes_file.xsd">
    <!-- VTypes -->
    <vType id="bus" vClass="bus"/>
    <vType id="t_0"/>
    <!-- Routes -->
    <route id="busRoute" edges="AB30AC30 AC30AD30 AD30AE30 AE30AF30 AF30AG30 AG30AH30 AH30AI30 AI30AJ30 AJ30AK30 AK30AL30 AL30AM30 AM30AN30 AN30AO30 AO30AP30 AP30AP29 AP29AP28 AP28AP27 AP27AP26 AP26AP25 AP25AP24 AP24AP23 AP23AP22 AP22AP21 AP21AP20 AP20AP19 AP19AP18 AP18AP17 AP17AP16 AP16AP15 AP15AP14 AP14AQ14 AQ14AP14 AP14AO14 AO14AN14 AN14AM14 AM14AL14 AL14AK14 AK14AJ14 AJ14AI14 AI14AH14 AH14AG14 AG14AF14 AF14AE14 AE14AD14 AD14AC14 AC14AB14 AB14AB15 AB15AB16 AB16AB17 AB17AB18 AB18AB19 AB19AB20 AB20AB21 AB21AB22 AB22AB23 AB23AB24 AB24AB25 AB25AB26 AB26AB27 AB27AB28 AB28AB29 AB29AB30 " color="yellow" repeat="10" cycleTime="140.00">
        <stop busStop="bs_0" duration="20.00" until="30.00"/>
        <stop busStop="bs_1" duration="20.00" until="90.00"/>
    </route>
    <!-- Vehicles, persons and containers (sorted by depart) -->
    <vehicle id="bus" type="bus" depart="0.00" line="42" route="busRoute"/>
</routes>
