<?xml version="1.0" encoding="UTF-8"?>

<!-- generated on 2023-08-07 10:38:04 by Eclipse SUMO sumo Version 1.18.0
-->

<configuration xmlns:xsi="http://www.w3.org/2001/XMLSchema-instance" xsi:noNamespaceSchemaLocation="http://sumo.dlr.de/xsd/sumoConfiguration.xsd">

    <input>
        <net-file value="32.net.xml"/>
        <route-files value="32.rou.xml"/>
        <additional-files value="32.add.xml"/>
    </input>

</configuration>
