<?xml version="1.0" encoding="UTF-8"?>

<!-- generated on 2023-09-01 12:26:31 by Eclipse SUMO netedit Version 1.18.0
-->

<routes xmlns:xsi="http://www.w3.org/2001/XMLSchema-instance" xsi:noNamespaceSchemaLocation="http://sumo.dlr.de/xsd/routes_file.xsd">
    <!-- VTypes -->
    <vType id="taxi" vClass="taxi" personCapacity="8">
        <param key="has.taxi.device" value="true"/>
        <param key="has.vehroute.device" value="true"/>
    </vType>
    <!-- Routes -->
    <route id="r_0" edges="C3C2 C2B2 B2B3 B3C3 C3C2"/>
</routes>
