<?xml version="1.0" encoding="UTF-8"?>

<!-- generated on 2023-05-31 10:25:56.062492 by osmWebWizard.py v1_16_0+0000-94ec4c6cd72
<configuration>
    <allow-fringe.min-length value="1000.0"/>
    <begin value="0"/>
    <end value="3600"/>
    <fringe-factor value="5"/>
    <fringe-start-attributes value="departSpeed=&quot;max&quot;"/>
    <insertion-density value="12.0"/>
    <lanes value="True"/>
    <min-distance.fringe value="10.0"/>
    <min-distance value="300.0"/>
    <net-file value="C:\Users\aaron\Sumo\2023-05-31-10-01-46\osm.net.xml.gz"/>
    <remove-loops value="True"/>
    <route-file value="C:\Users\aaron\Sumo\2023-05-31-10-01-46\osm.passenger.rou.xml"/>
    <trip-attributes value="departLane=&quot;best&quot;"/>
    <output-trip-file value="C:\Users\aaron\Sumo\2023-05-31-10-01-46\osm.passenger.trips.xml"/>
    <prefix value="veh"/>
    <validate value="True"/>
    <vehicle-class value="passenger"/>
</configuration>
-->

<!-- generated on 2023-05-31 10:18:09 by Eclipse SUMO duarouter Version 1.16.0
<configuration xmlns:xsi="http://www.w3.org/2001/XMLSchema-instance" xsi:noNamespaceSchemaLocation="http://sumo.dlr.de/xsd/duarouterConfiguration.xsd">

    <input>
        <net-file value="C:\Users\aaron\Sumo\2023-05-31-10-01-46\osm.net.xml.gz"/>
        <route-files value="C:\Users\aaron\Sumo\2023-05-31-10-01-46\osm.passenger.trips.xml"/>
    </input>

    <output>
        <output-file value="C:\Users\aaron\Sumo\2023-05-31-10-01-46\osm.passenger.trips.xml.tmp"/>
        <alternatives-output value="NUL"/>
        <write-trips value="true"/>
    </output>

    <processing>
        <remove-loops value="true"/>
    </processing>

    <time>
        <begin value="0"/>
        <end value="3600"/>
    </time>

    <report>
        <no-warnings value="true"/>
        <ignore-errors value="true"/>
        <no-step-log value="true"/>
    </report>

</configuration>
-->

<routes xmlns:xsi="http://www.w3.org/2001/XMLSchema-instance" xsi:noNamespaceSchemaLocation="http://sumo.dlr.de/xsd/routes_file.xsd">
    <vType id="veh_passenger" vClass="passenger"/>
    <trip id="veh0" type="veh_passenger" depart="0.00" departLane="best" departSpeed="max" from="543778950" to="127009925#7"/>
    <trip id="veh1" type="veh_passenger" depart="0.13" departLane="best" from="-832603625#3" to="-6018960#7"/>
    <trip id="veh2" type="veh_passenger" depart="0.25" departLane="best" from="6007526#1" to="6001900#1"/>
    <trip id="veh3" type="veh_passenger" depart="0.38" departLane="best" departSpeed="max" from="80315999" to="423861664#0"/>
    <trip id="veh4" type="veh_passenger" depart="0.50" departLane="best" from="189310752#3" to="138419313#10"/>
    <trip id="veh6" type="veh_passenger" depart="0.76" departLane="best" from="-130576307#4" to="6012586#0"/>
    <trip id="veh7" type="veh_passenger" depart="0.88" departLane="best" from="546440245#2" to="425195031"/>
    <trip id="veh8" type="veh_passenger" depart="1.01" departLane="best" from="6015434#17" to="501458168#0"/>
    <trip id="veh9" type="veh_passenger" depart="1.13" departLane="best" departSpeed="max" from="6016948#0" to="-107438763#9"/>
    <trip id="veh10" type="veh_passenger" depart="1.26" departLane="best" from="6015457#8" to="6004987#5"/>
    <trip id="veh11" type="veh_passenger" depart="1.39" departLane="best" from="1065778540#2" to="-6004416#1"/>
    <trip id="veh12" type="veh_passenger" depart="1.51" departLane="best" from="965905586" to="312657349"/>
    <trip id="veh13" type="veh_passenger" depart="1.64" departLane="best" from="-424992974#0" to="-425005158"/>
    <trip id="veh14" type="veh_passenger" depart="1.76" departLane="best" from="-605729015#1" to="53395343#1"/>
    <trip id="veh15" type="veh_passenger" depart="1.89" departLane="best" from="6015600#5" to="6007736#14"/>
    <trip id="veh16" type="veh_passenger" depart="2.02" departLane="best" from="424992981#0" to="98115639#2"/>
    <trip id="veh17" type="veh_passenger" depart="2.14" departLane="best" from="11998007#13" to="451773248"/>
    <trip id="veh18" type="veh_passenger" depart="2.27" departLane="best" from="-6020716#2" to="542335285#1"/>
    <trip id="veh19" type="veh_passenger" depart="2.39" departLane="best" from="-70803239#4" to="49667507#0"/>
    <trip id="veh20" type="veh_passenger" depart="2.52" departLane="best" from="6004400#3" to="-196464292#2"/>
    <trip id="veh21" type="veh_passenger" depart="2.64" departLane="best" from="6017960#2" to="-953001152#3"/>
    <trip id="veh22" type="veh_passenger" depart="2.77" departLane="best" departSpeed="max" from="-361455432" to="-6022222"/>
    <trip id="veh23" type="veh_passenger" depart="2.90" departLane="best" from="-451773860#2" to="947828495#1"/>
    <trip id="veh24" type="veh_passenger" depart="3.02" departLane="best" from="543413044" to="11998007#22"/>
    <trip id="veh25" type="veh_passenger" depart="3.15" departLane="best" from="1158391167" to="-6014491#8"/>
    <trip id="veh26" type="veh_passenger" depart="3.27" departLane="best" from="-77434522#8" to="948479201#1"/>
    <trip id="veh27" type="veh_passenger" depart="3.40" departLane="best" from="546360676#6" to="540072978#4"/>
    <trip id="veh28" type="veh_passenger" depart="3.53" departLane="best" departSpeed="max" from="-6006594#1" to="6007715#17"/>
    <trip id="veh29" type="veh_passenger" depart="3.65" departLane="best" from="-6005505#1" to="130599669#0"/>
    <trip id="veh30" type="veh_passenger" depart="3.78" departLane="best" from="-98289539#33" to="546440245#2"/>
    <trip id="veh31" type="veh_passenger" depart="3.90" departLane="best" from="425203594" to="6003245#4"/>
    <trip id="veh32" type="veh_passenger" depart="4.03" departLane="best" from="-6023107#2" to="6012851#4"/>
    <trip id="veh33" type="veh_passenger" depart="4.16" departLane="best" from="-6018265#9" to="-151863043#4"/>
    <trip id="veh34" type="veh_passenger" depart="4.28" departLane="best" from="-98214819#1" to="85715368#3"/>
    <trip id="veh35" type="veh_passenger" depart="4.41" departLane="best" from="-6013535#0" to="-949376650#1"/>
    <trip id="veh36" type="veh_passenger" depart="4.53" departLane="best" from="75359738#1" to="1032030699"/>
    <trip id="veh37" type="veh_passenger" depart="4.66" departLane="best" from="547154712#13" to="178254357#2"/>
    <trip id="veh38" type="veh_passenger" depart="4.79" departLane="best" from="890912703" to="237887546#1"/>
    <trip id="veh39" type="veh_passenger" depart="4.91" departLane="best" from="-77083563#10" to="-71698935#7"/>
    <trip id="veh40" type="veh_passenger" depart="5.04" departLane="best" departSpeed="max" from="45091352" to="829470071#2"/>
    <trip id="veh41" type="veh_passenger" depart="5.16" departLane="best" from="49650144" to="834984992#0"/>
    <trip id="veh42" type="veh_passenger" depart="5.29" departLane="best" from="-138384286#0" to="-6017960#0"/>
    <trip id="veh43" type="veh_passenger" depart="5.42" departLane="best" from="987627377" to="395916364#1"/>
    <trip id="veh44" type="veh_passenger" depart="5.54" departLane="best" from="-424991761#1" to="-196920693#2"/>
    <trip id="veh45" type="veh_passenger" depart="5.67" departLane="best" from="49667946#1" to="-543735157#7"/>
    <trip id="veh46" type="veh_passenger" depart="5.79" departLane="best" from="-6013944#14" to="194234257#0"/>
    <trip id="veh47" type="veh_passenger" depart="5.92" departLane="best" from="-255072187#13" to="132521323#3"/>
    <trip id="veh48" type="veh_passenger" depart="6.05" departLane="best" from="-983433370#0" to="-424994494#9"/>
    <trip id="veh49" type="veh_passenger" depart="6.17" departLane="best" from="98106794#2" to="711690722#0"/>
    <trip id="veh50" type="veh_passenger" depart="6.30" departLane="best" from="-1107585726#3" to="6007005"/>
    <trip id="veh51" type="veh_passenger" depart="6.42" departLane="best" from="-5993958#1" to="-425001255#1"/>
    <trip id="veh52" type="veh_passenger" depart="6.55" departLane="best" from="-77434522#0" to="178254378#0"/>
    <trip id="veh53" type="veh_passenger" depart="6.68" departLane="best" from="-500300320#1" to="111081880"/>
    <trip id="veh54" type="veh_passenger" depart="6.80" departLane="best" from="198924903#2" to="47986437"/>
    <trip id="veh56" type="veh_passenger" depart="7.05" departLane="best" from="324563820#13" to="-6008141#1"/>
    <trip id="veh57" type="veh_passenger" depart="7.18" departLane="best" from="876215297#0" to="73920717#7"/>
    <trip id="veh58" type="veh_passenger" depart="7.31" departLane="best" from="949376646#2" to="546432252#7"/>
    <trip id="veh59" type="veh_passenger" depart="7.43" departLane="best" from="51965047#1" to="6003946#3"/>
    <trip id="veh60" type="veh_passenger" depart="7.56" departLane="best" from="6010344#3" to="425002435#5"/>
    <trip id="veh61" type="veh_passenger" depart="7.68" departLane="best" from="6012292#3" to="424996491"/>
    <trip id="veh62" type="veh_passenger" depart="7.81" departLane="best" from="-1014015176#1" to="1065407506#1"/>
    <trip id="veh63" type="veh_passenger" depart="7.93" departLane="best" from="-1157995409" to="947730815#5"/>
    <trip id="veh64" type="veh_passenger" depart="8.06" departLane="best" from="188783428#2" to="6021695#0"/>
    <trip id="veh65" type="veh_passenger" depart="8.19" departLane="best" from="978048909#3" to="-220009852#1"/>
    <trip id="veh66" type="veh_passenger" depart="8.31" departLane="best" from="75923291#2" to="950268669#0"/>
    <trip id="veh67" type="veh_passenger" depart="8.44" departLane="best" departSpeed="max" from="-396331296" to="305419555"/>
    <trip id="veh68" type="veh_passenger" depart="8.56" departLane="best" from="279675878#9" to="6011227#2"/>
    <trip id="veh69" type="veh_passenger" depart="8.69" departLane="best" departSpeed="max" from="6010943#0" to="545109659#8"/>
    <trip id="veh70" type="veh_passenger" depart="8.82" departLane="best" from="241186925#9" to="450298548#0"/>
    <trip id="veh71" type="veh_passenger" depart="8.94" departLane="best" from="-77083563#8" to="98115622#0"/>
    <trip id="veh72" type="veh_passenger" depart="9.07" departLane="best" from="192311459#3" to="6014867#4"/>
    <trip id="veh73" type="veh_passenger" depart="9.19" departLane="best" from="424994049#1" to="6007736#31"/>
    <trip id="veh74" type="veh_passenger" depart="9.32" departLane="best" departSpeed="max" from="-6011829" to="100890476#0"/>
    <trip id="veh75" type="veh_passenger" depart="9.45" departLane="best" from="98289637#3" to="548202860#0"/>
    <trip id="veh76" type="veh_passenger" depart="9.57" departLane="best" from="-195248665#6" to="424990140#3"/>
    <trip id="veh77" type="veh_passenger" depart="9.70" departLane="best" departSpeed="max" from="-539677095#1" to="-6019597#2"/>
    <trip id="veh78" type="veh_passenger" depart="9.82" departLane="best" from="-1065407508" to="501281928#1"/>
    <trip id="veh79" type="veh_passenger" depart="9.95" departLane="best" from="-6018611#0" to="-6018240#0"/>
    <trip id="veh80" type="veh_passenger" depart="10.08" departLane="best" from="-287654135#0" to="543989575"/>
    <trip id="veh81" type="veh_passenger" depart="10.20" departLane="best" from="-6018265#2" to="858451947"/>
    <trip id="veh82" type="veh_passenger" depart="10.33" departLane="best" from="70649065" to="288086186#7"/>
    <trip id="veh83" type="veh_passenger" depart="10.45" departLane="best" from="6021192#5" to="5991822#1"/>
    <trip id="veh84" type="veh_passenger" depart="10.58" departLane="best" from="-6014138#8" to="-547154712#5"/>
    <trip id="veh85" type="veh_passenger" depart="10.71" departLane="best" from="948331271#4" to="-49641361#0"/>
    <trip id="veh86" type="veh_passenger" depart="10.83" departLane="best" from="543412939-AddedOffRampEdge" to="6013781#1"/>
    <trip id="veh87" type="veh_passenger" depart="10.96" departLane="best" from="6015703#0" to="-6010877#5"/>
    <trip id="veh88" type="veh_passenger" depart="11.08" departLane="best" from="-425003415#1" to="197613650#1"/>
    <trip id="veh89" type="veh_passenger" depart="11.21" departLane="best" from="192366433#3" to="24774401"/>
    <trip id="veh90" type="veh_passenger" depart="11.34" departLane="best" from="-6006768#1" to="5996786"/>
    <trip id="veh91" type="veh_passenger" depart="11.46" departLane="best" from="98289452#0" to="442592149#1"/>
    <trip id="veh92" type="veh_passenger" depart="11.59" departLane="best" from="138869853#7" to="1104866628#1"/>
    <trip id="veh93" type="veh_passenger" depart="11.71" departLane="best" from="70803239#1" to="-72838171#0"/>
    <trip id="veh94" type="veh_passenger" depart="11.84" departLane="best" from="-6009678#3" to="207525385#3"/>
    <trip id="veh95" type="veh_passenger" depart="11.97" departLane="best" from="189310752#2" to="-947877983#1"/>
    <trip id="veh96" type="veh_passenger" depart="12.09" departLane="best" from="-653123345#1" to="943802574#3"/>
    <trip id="veh97" type="veh_passenger" depart="12.22" departLane="best" from="196948952#1" to="712050425#2"/>
    <trip id="veh98" type="veh_passenger" depart="12.34" departLane="best" from="425002435#0" to="198707920#3"/>
    <trip id="veh99" type="veh_passenger" depart="12.47" departLane="best" from="997422472#2" to="6022601#3"/>
    <trip id="veh100" type="veh_passenger" depart="12.59" departLane="best" from="-98059772#2" to="947448831#2"/>
    <trip id="veh101" type="veh_passenger" depart="12.72" departLane="best" from="608942264#4" to="-6006363#3"/>
    <trip id="veh102" type="veh_passenger" depart="12.85" departLane="best" from="968721061#21" to="-6015596#18"/>
    <trip id="veh103" type="veh_passenger" depart="12.97" departLane="best" from="138422192#1" to="-225157513#5"/>
    <trip id="veh104" type="veh_passenger" depart="13.10" departLane="best" from="11998018#15" to="98289477#0"/>
    <trip id="veh105" type="veh_passenger" depart="13.22" departLane="best" from="77083588#1" to="6013764#1"/>
    <trip id="veh106" type="veh_passenger" depart="13.35" departLane="best" from="202622188#1" to="194424390"/>
    <trip id="veh107" type="veh_passenger" depart="13.48" departLane="best" from="967337517#2" to="98289659#5"/>
    <trip id="veh108" type="veh_passenger" depart="13.60" departLane="best" from="-425194775#1" to="-6006741#11"/>
    <trip id="veh109" type="veh_passenger" depart="13.73" departLane="best" from="-6003643#2" to="98106794#1"/>
    <trip id="veh110" type="veh_passenger" depart="13.85" departLane="best" from="-98058494#2" to="49667947#6"/>
    <trip id="veh111" type="veh_passenger" depart="13.98" departLane="best" from="424996926#1" to="6009576#3"/>
    <trip id="veh112" type="veh_passenger" depart="14.11" departLane="best" from="-218664639#0" to="500547204#0"/>
    <trip id="veh113" type="veh_passenger" depart="14.23" departLane="best" from="32829714#0" to="69546295#1"/>
    <trip id="veh114" type="veh_passenger" depart="14.36" departLane="best" from="6004180#0" to="972394174#0"/>
    <trip id="veh115" type="veh_passenger" depart="14.48" departLane="best" from="364597928#0" to="6009780#4"/>
    <trip id="veh116" type="veh_passenger" depart="14.61" departLane="best" from="500298282#0" to="5999394#0"/>
    <trip id="veh117" type="veh_passenger" depart="14.74" departLane="best" departSpeed="max" from="-6020453" to="-539742504#2"/>
    <trip id="veh118" type="veh_passenger" depart="14.86" departLane="best" from="791811233#6" to="-71698835#5"/>
    <trip id="veh119" type="veh_passenger" depart="14.99" departLane="best" from="499208546#2" to="54240376#5"/>
    <trip id="veh120" type="veh_passenger" depart="15.11" departLane="best" from="188783434#2" to="500300516#3"/>
    <trip id="veh121" type="veh_passenger" depart="15.24" departLane="best" departSpeed="max" from="401519130#0" to="948338667#1"/>
    <trip id="veh122" type="veh_passenger" depart="15.37" departLane="best" from="-6012302#0" to="-6006482#0"/>
    <trip id="veh123" type="veh_passenger" depart="15.49" departLane="best" departSpeed="max" from="-6021369" to="178254357#6"/>
    <trip id="veh124" type="veh_passenger" depart="15.62" departLane="best" from="548441498#13" to="-98166058#16"/>
    <trip id="veh125" type="veh_passenger" depart="15.74" departLane="best" from="-98289436#2" to="6010118#2"/>
    <trip id="veh126" type="veh_passenger" depart="15.87" departLane="best" from="-289676713#5" to="231976357#1"/>
    <trip id="veh127" type="veh_passenger" depart="16.00" departLane="best" from="989839287" to="130576348"/>
    <trip id="veh128" type="veh_passenger" depart="16.12" departLane="best" from="-301307055#4" to="-6015443#1"/>
    <trip id="veh129" type="veh_passenger" depart="16.25" departLane="best" from="-77083564#5" to="-948324232#3"/>
    <trip id="veh130" type="veh_passenger" depart="16.37" departLane="best" from="-75926225#8" to="765317699#1"/>
    <trip id="veh131" type="veh_passenger" depart="16.50" departLane="best" from="11570425" to="6005136#2"/>
    <trip id="veh132" type="veh_passenger" depart="16.63" departLane="best" from="6021368#0" to="6005335#7"/>
    <trip id="veh133" type="veh_passenger" depart="16.75" departLane="best" from="-521991235#5" to="98289499#0"/>
    <trip id="veh134" type="veh_passenger" depart="16.88" departLane="best" from="546911819" to="-1085601311"/>
    <trip id="veh135" type="veh_passenger" depart="17.00" departLane="best" from="6017960#2" to="-98144300#6"/>
    <trip id="veh136" type="veh_passenger" depart="17.13" departLane="best" from="-548218074#1" to="949066305"/>
    <trip id="veh137" type="veh_passenger" depart="17.26" departLane="best" from="-547151025" to="-521783655#0"/>
    <trip id="veh138" type="veh_passenger" depart="17.38" departLane="best" from="-49641450#0" to="451775066#3"/>
    <trip id="veh139" type="veh_passenger" depart="17.51" departLane="best" from="-818870084#1" to="539721485#3"/>
    <trip id="veh141" type="veh_passenger" depart="17.76" departLane="best" from="543401292-AddedOffRampEdge" to="-832603625#5"/>
    <trip id="veh142" type="veh_passenger" depart="17.88" departLane="best" from="-274676720#8" to="857172475"/>
    <trip id="veh143" type="veh_passenger" depart="18.01" departLane="best" from="-6023696#0" to="-424993941#0"/>
    <trip id="veh144" type="veh_passenger" depart="18.14" departLane="best" from="192366433#2" to="-947743441#3"/>
    <trip id="veh145" type="veh_passenger" depart="18.26" departLane="best" from="-1064816172#1" to="6012281#2"/>
    <trip id="veh146" type="veh_passenger" depart="18.39" departLane="best" from="543589118#1" to="82576530#2"/>
    <trip id="veh147" type="veh_passenger" depart="18.51" departLane="best" from="6007872#3" to="451551609"/>
    <trip id="veh148" type="veh_passenger" depart="18.64" departLane="best" from="192464192#5" to="-1088194797"/>
    <trip id="veh149" type="veh_passenger" depart="18.77" departLane="best" from="-324563820#10" to="77434526#4"/>
    <trip id="veh150" type="veh_passenger" depart="18.89" departLane="best" from="84596549#2" to="425197831#1"/>
    <trip id="veh151" type="veh_passenger" depart="19.02" departLane="best" from="-6002731#4" to="425194186"/>
    <trip id="veh152" type="veh_passenger" depart="19.14" departLane="best" from="-98040514#1" to="83704673"/>
    <trip id="veh153" type="veh_passenger" depart="19.27" departLane="best" from="6014167#6" to="-711678907#5"/>
    <trip id="veh154" type="veh_passenger" depart="19.40" departLane="best" from="832057594#0" to="-6014653#0"/>
    <trip id="veh155" type="veh_passenger" depart="19.52" departLane="best" from="-653123344#0" to="47987687#3"/>
    <trip id="veh156" type="veh_passenger" depart="19.65" departLane="best" from="6012451#0" to="777914547#7"/>
    <trip id="veh157" type="veh_passenger" depart="19.77" departLane="best" from="164024528#40" to="543333900#2"/>
    <trip id="veh158" type="veh_passenger" depart="19.90" departLane="best" from="-6003623#0" to="947743451#1"/>
    <trip id="veh159" type="veh_passenger" depart="20.03" departLane="best" from="-711678907#0" to="98144249#5"/>
    <trip id="veh160" type="veh_passenger" depart="20.15" departLane="best" from="6017214#1" to="772594361#6"/>
    <trip id="veh161" type="veh_passenger" depart="20.28" departLane="best" departSpeed="max" from="-126454958" to="6008274#0"/>
    <trip id="veh162" type="veh_passenger" depart="20.40" departLane="best" from="1051442248#0" to="-947828479#1"/>
    <trip id="veh163" type="veh_passenger" depart="20.53" departLane="best" from="6014867#11" to="72656677#1"/>
    <trip id="veh164" type="veh_passenger" depart="20.66" departLane="best" from="6017214#0" to="-84601340#1"/>
    <trip id="veh165" type="veh_passenger" depart="20.78" departLane="best" from="6013361#0" to="49667946#4"/>
    <trip id="veh166" type="veh_passenger" depart="20.91" departLane="best" from="72835920#7" to="70803678#1"/>
    <trip id="veh167" type="veh_passenger" depart="21.03" departLane="best" departSpeed="max" from="-6015736" to="6018750#4"/>
    <trip id="veh168" type="veh_passenger" depart="21.16" departLane="best" from="207525366#2" to="98289509#1"/>
    <trip id="veh169" type="veh_passenger" depart="21.29" departLane="best" from="6014143#5" to="6021139#1"/>
    <trip id="veh170" type="veh_passenger" depart="21.41" departLane="best" from="-125266906#2" to="-6011404#4"/>
    <trip id="veh171" type="veh_passenger" depart="21.54" departLane="best" from="1030556438" to="72832512#2"/>
    <trip id="veh172" type="veh_passenger" depart="21.66" departLane="best" from="98040494#0" to="-948324226#1"/>
    <trip id="veh173" type="veh_passenger" depart="21.79" departLane="best" from="543965166#0" to="186672434#3"/>
    <trip id="veh174" type="veh_passenger" depart="21.92" departLane="best" from="-981883612#2" to="424999891#0"/>
    <trip id="veh175" type="veh_passenger" depart="22.04" departLane="best" from="-948491787#1" to="-51964896#1"/>
    <trip id="veh176" type="veh_passenger" depart="22.17" departLane="best" from="98106786#0" to="-6008140#0"/>
    <trip id="veh177" type="veh_passenger" depart="22.29" departLane="best" from="974039867" to="-83704718#0"/>
    <trip id="veh178" type="veh_passenger" depart="22.42" departLane="best" from="-49664167#5" to="197950014#2"/>
    <trip id="veh179" type="veh_passenger" depart="22.54" departLane="best" from="-6006741#6" to="1024461450#3"/>
    <trip id="veh180" type="veh_passenger" depart="22.67" departLane="best" from="513618516" to="-401700516#4"/>
    <trip id="veh181" type="veh_passenger" depart="22.80" departLane="best" from="127010720#11" to="49664169#4"/>
    <trip id="veh182" type="veh_passenger" depart="22.92" departLane="best" from="-707170772#5" to="6005854#3"/>
    <trip id="veh183" type="veh_passenger" depart="23.05" departLane="best" from="1032030698" to="94669649#0"/>
    <trip id="veh184" type="veh_passenger" depart="23.17" departLane="best" from="424993741#1" to="6006782#1"/>
    <trip id="veh185" type="veh_passenger" depart="23.30" departLane="best" from="6007958#0" to="5993247#1"/>
    <trip id="veh186" type="veh_passenger" depart="23.43" departLane="best" from="113922661#0" to="-287653681#20"/>
    <trip id="veh187" type="veh_passenger" depart="23.55" departLane="best" from="548235560#0" to="-107263475#8"/>
    <trip id="veh188" type="veh_passenger" depart="23.68" departLane="best" from="-98170418#1" to="667355643#2"/>
    <trip id="veh189" type="veh_passenger" depart="23.80" departLane="best" from="6005980#1" to="98166099#2"/>
    <trip id="veh190" type="veh_passenger" depart="23.93" departLane="best" from="-98058495#1" to="189310477"/>
    <trip id="veh191" type="veh_passenger" depart="24.06" departLane="best" from="-138869853#2" to="-98057880#6"/>
    <trip id="veh192" type="veh_passenger" depart="24.18" departLane="best" from="-543597786" to="-192818833#6"/>
    <trip id="veh193" type="veh_passenger" depart="24.31" departLane="best" from="948928818#0" to="6002711#1"/>
    <trip id="veh194" type="veh_passenger" depart="24.43" departLane="best" from="837239919#0" to="542170732"/>
    <trip id="veh195" type="veh_passenger" depart="24.56" departLane="best" from="950044892#5" to="436184225#3"/>
    <trip id="veh196" type="veh_passenger" depart="24.69" departLane="best" from="-1013882047#2" to="-949415763"/>
    <trip id="veh197" type="veh_passenger" depart="24.81" departLane="best" from="192572987#1" to="498133944#6"/>
    <trip id="veh198" type="veh_passenger" depart="24.94" departLane="best" from="547151020#0" to="24665480#1-AddedOnRampEdge"/>
    <trip id="veh199" type="veh_passenger" depart="25.06" departLane="best" from="196920674#1" to="6015596#15"/>
    <trip id="veh200" type="veh_passenger" depart="25.19" departLane="best" from="238956229#16" to="84601133#2"/>
    <trip id="veh201" type="veh_passenger" depart="25.32" departLane="best" from="6014167#4" to="-6006772#4"/>
    <trip id="veh202" type="veh_passenger" depart="25.44" departLane="best" from="-392291179#1" to="422392970#9"/>
    <trip id="veh203" type="veh_passenger" depart="25.57" departLane="best" from="-543390273#0" to="1087376006#1"/>
    <trip id="veh204" type="veh_passenger" depart="25.69" departLane="best" from="6018240#1" to="6010029#2"/>
    <trip id="veh205" type="veh_passenger" depart="25.82" departLane="best" from="548576264#5" to="6019585#7"/>
    <trip id="veh206" type="veh_passenger" depart="25.95" departLane="best" from="-6011608#2" to="-126153106#7"/>
    <trip id="veh207" type="veh_passenger" depart="26.07" departLane="best" from="-6023129#1" to="266323357"/>
    <trip id="veh208" type="veh_passenger" depart="26.20" departLane="best" from="-629940404" to="-302003633#2"/>
    <trip id="veh209" type="veh_passenger" depart="26.32" departLane="best" from="187354117#1" to="543940096#0"/>
    <trip id="veh210" type="veh_passenger" depart="26.45" departLane="best" departSpeed="max" from="-6010412#1" to="6004441#0"/>
    <trip id="veh211" type="veh_passenger" depart="26.58" departLane="best" from="-287654134#3" to="70649053#1"/>
    <trip id="veh212" type="veh_passenger" depart="26.70" departLane="best" from="547740083#0" to="-1070477231#2"/>
    <trip id="veh213" type="veh_passenger" depart="26.83" departLane="best" from="6008936#4" to="6012178#3"/>
    <trip id="veh214" type="veh_passenger" depart="26.95" departLane="best" from="495095466" to="195422441#1"/>
    <trip id="veh215" type="veh_passenger" depart="27.08" departLane="best" from="-6007373#0" to="968721073#2"/>
    <trip id="veh216" type="veh_passenger" depart="27.21" departLane="best" from="391293978#2" to="-198706143#2"/>
    <trip id="veh217" type="veh_passenger" depart="27.33" departLane="best" from="-646191783#16" to="682334831#0"/>
    <trip id="veh218" type="veh_passenger" depart="27.46" departLane="best" from="202760733#1" to="6015684#6"/>
    <trip id="veh219" type="veh_passenger" depart="27.58" departLane="best" from="548248525#0" to="98289510#1"/>
    <trip id="veh220" type="veh_passenger" depart="27.71" departLane="best" from="500300319#3" to="952026783#0"/>
    <trip id="veh221" type="veh_passenger" depart="27.83" departLane="best" from="79881758#4" to="541980630#0"/>
    <trip id="veh222" type="veh_passenger" depart="27.96" departLane="best" from="6005955#1" to="390357852#4"/>
    <trip id="veh223" type="veh_passenger" depart="28.09" departLane="best" from="6020960#5" to="436184225#2"/>
    <trip id="veh224" type="veh_passenger" depart="28.21" departLane="best" from="83073949#4" to="6009284#21"/>
    <trip id="veh225" type="veh_passenger" depart="28.34" departLane="best" from="239839248#1" to="-79372590#1"/>
    <trip id="veh226" type="veh_passenger" depart="28.46" departLane="best" from="6023841#0" to="546214818"/>
    <trip id="veh227" type="veh_passenger" depart="28.59" departLane="best" departSpeed="max" from="6010943#0" to="424991393#1"/>
    <trip id="veh228" type="veh_passenger" depart="28.72" departLane="best" from="542170736#2" to="94669649#1"/>
    <trip id="veh229" type="veh_passenger" depart="28.84" departLane="best" from="-337486038#1" to="949376646#0"/>
    <trip id="veh230" type="veh_passenger" depart="28.97" departLane="best" from="-808368777#1" to="1053844988"/>
    <trip id="veh231" type="veh_passenger" depart="29.09" departLane="best" from="424994494#12" to="-548453207#1"/>
    <trip id="veh232" type="veh_passenger" depart="29.22" departLane="best" from="-6018783#1" to="-6004378#9"/>
    <trip id="veh233" type="veh_passenger" depart="29.35" departLane="best" from="6004557#0" to="-255072187#41"/>
    <trip id="veh234" type="veh_passenger" depart="29.47" departLane="best" from="-170317522#0" to="425004675#0"/>
    <trip id="veh235" type="veh_passenger" depart="29.60" departLane="best" from="-188164049#1" to="-6014138#12"/>
    <trip id="veh237" type="veh_passenger" depart="29.85" departLane="best" departSpeed="max" from="49642256" to="-6004433#0"/>
    <trip id="veh239" type="veh_passenger" depart="30.10" departLane="best" from="120487180#1" to="-107263473#0"/>
    <trip id="veh240" type="veh_passenger" depart="30.23" departLane="best" from="109483254#2" to="6010272"/>
    <trip id="veh241" type="veh_passenger" depart="30.35" departLane="best" from="69488489#4" to="95911558#7"/>
    <trip id="veh242" type="veh_passenger" depart="30.48" departLane="best" from="188783429#1" to="-6009549#1"/>
    <trip id="veh243" type="veh_passenger" depart="30.61" departLane="best" from="424999448" to="532516429#6"/>
    <trip id="veh244" type="veh_passenger" depart="30.73" departLane="best" from="-6015434#19" to="-6017960#5"/>
    <trip id="veh245" type="veh_passenger" depart="30.86" departLane="best" from="194234257#3" to="138384286#1"/>
    <trip id="veh246" type="veh_passenger" depart="30.98" departLane="best" from="1058915456#0" to="6002854#3"/>
    <trip id="veh247" type="veh_passenger" depart="31.11" departLane="best" from="152761660#2" to="6006211#20"/>
    <trip id="veh248" type="veh_passenger" depart="31.24" departLane="best" from="219588777#1" to="544663022#3"/>
    <trip id="veh249" type="veh_passenger" depart="31.36" departLane="best" from="132381949" to="47989157#4"/>