<?xml version="1.0" encoding="UTF-8"?>

<!-- generated on 2023-05-31 10:10:09.011052 by osmWebWizard.py v1_16_0+0000-94ec4c6cd72
<configuration>
    <begin value="0"/>
    <end value="3600"/>
    <fringe-factor value="5"/>
    <fringe-start-attributes value="departSpeed=&quot;max&quot;"/>
    <insertion-density value="4.0"/>
    <min-distance.fringe value="10.0"/>
    <min-distance value="600.0"/>
    <net-file value="C:\Users\aaron\Sumo\2023-05-31-10-01-46\osm.net.xml.gz"/>
    <remove-loops value="True"/>
    <route-file value="C:\Users\aaron\Sumo\2023-05-31-10-01-46\osm.bus.rou.xml"/>
    <trip-attributes value="departLane=&quot;best&quot;"/>
    <output-trip-file value="C:\Users\aaron\Sumo\2023-05-31-10-01-46\osm.bus.trips.xml"/>
    <prefix value="bus"/>
    <validate value="True"/>
    <vclass value="bus"/>
    <vehicle-class value="bus"/>
</configuration>
-->

<!-- generated on 2023-05-31 10:07:35 by Eclipse SUMO duarouter Version 1.16.0
<configuration xmlns:xsi="http://www.w3.org/2001/XMLSchema-instance" xsi:noNamespaceSchemaLocation="http://sumo.dlr.de/xsd/duarouterConfiguration.xsd">

    <input>
        <net-file value="C:\Users\aaron\Sumo\2023-05-31-10-01-46\osm.net.xml.gz"/>
        <route-files value="C:\Users\aaron\Sumo\2023-05-31-10-01-46\osm.bus.trips.xml"/>
    </input>

    <output>
        <output-file value="C:\Users\aaron\Sumo\2023-05-31-10-01-46\osm.bus.trips.xml.tmp"/>
        <alternatives-output value="NUL"/>
        <write-trips value="true"/>
    </output>

    <processing>
        <remove-loops value="true"/>
    </processing>

    <time>
        <begin value="0"/>
        <end value="3600"/>
    </time>

    <report>
        <no-warnings value="true"/>
        <ignore-errors value="true"/>
        <no-step-log value="true"/>
    </report>

</configuration>
-->

<routes xmlns:xsi="http://www.w3.org/2001/XMLSchema-instance" xsi:noNamespaceSchemaLocation="http://sumo.dlr.de/xsd/routes_file.xsd">
    <vType id="bus_bus" vClass="bus"/>
    <trip id="bus0" type="bus_bus" depart="0.00" departLane="best" from="-544663022#1" to="6009242#13"/>
    <trip id="bus1" type="bus_bus" depart="0.38" departLane="best" from="-6021511#2" to="-6012346#1"/>
    <trip id="bus2" type="bus_bus" depart="0.75" departLane="best" from="6007759#1" to="6003893#16"/>
    <trip id="bus4" type="bus_bus" depart="1.51" departLane="best" from="122189400" to="-130599639#2"/>
    <trip id="bus5" type="bus_bus" depart="1.89" departLane="best" from="-6010456#3" to="289676714#3"/>
    <trip id="bus6" type="bus_bus" depart="2.26" departLane="best" from="-125266904#2" to="6008167#0"/>
    <trip id="bus7" type="bus_bus" depart="2.64" departLane="best" from="548206008#2" to="424992516"/>
    <trip id="bus8" type="bus_bus" depart="3.02" departLane="best" departSpeed="max" from="-6010988" to="501284009#0"/>
    <trip id="bus9" type="bus_bus" depart="3.40" departLane="best" from="-6014688#6" to="-107296238#2"/>
    <trip id="bus10" type="bus_bus" depart="3.77" departLane="best" from="6014382#11" to="6005925#6"/>
    <trip id="bus11" type="bus_bus" depart="4.15" departLane="best" from="-948676220#2" to="6001371#1"/>
    <trip id="bus12" type="bus_bus" depart="4.53" departLane="best" from="949415761#1" to="-98040494#0"/>
    <trip id="bus13" type="bus_bus" depart="4.91" departLane="best" from="-362491063#7" to="6011218#1"/>
    <trip id="bus14" type="bus_bus" depart="5.28" departLane="best" from="6021203#12" to="539723401#5"/>
    <trip id="bus15" type="bus_bus" depart="5.66" departLane="best" from="6014479#10" to="-6008132#11"/>
    <trip id="bus16" type="bus_bus" depart="6.04" departLane="best" from="364796833#12" to="98040575#5"/>
    <trip id="bus17" type="bus_bus" depart="6.42" departLane="best" from="1054722603" to="425002337#0"/>
    <trip id="bus18" type="bus_bus" depart="6.79" departLane="best" from="6018188#1" to="128117916"/>
    <trip id="bus19" type="bus_bus" depart="7.17" departLane="best" from="-6023488#2" to="49651469#1-AddedOffRampEdge"/>
    <trip id="bus20" type="bus_bus" depart="7.55" departLane="best" from="6005412#1" to="192464188#0"/>
    <trip id="bus21" type="bus_bus" depart="7.92" departLane="best" from="6012054#0" to="-75926209#0"/>
    <trip id="bus22" type="bus_bus" depart="8.30" departLane="best" from="282162803" to="-6013964#8"/>
    <trip id="bus23" type="bus_bus" depart="8.68" departLane="best" from="-410712721" to="-69644371#0"/>
    <trip id="bus24" type="bus_bus" depart="9.06" departLane="best" from="543778954#1" to="1065447974#9"/>
    <trip id="bus25" type="bus_bus" depart="9.43" departLane="best" departSpeed="max" from="-986255087#2" to="-6010143#7"/>
    <trip id="bus26" type="bus_bus" depart="9.81" departLane="best" from="6019500#2" to="944679623#3"/>
    <trip id="bus27" type="bus_bus" depart="10.19" departLane="best" from="548174719#0" to="540072979#2"/>
    <trip id="bus28" type="bus_bus" depart="10.57" departLane="best" from="-6004104#1" to="6008107#0"/>
    <trip id="bus29" type="bus_bus" depart="10.94" departLane="best" from="-98289496" to="548248519"/>
    <trip id="bus30" type="bus_bus" depart="11.32" departLane="best" from="424991103#0" to="6004485#5"/>
    <trip id="bus31" type="bus_bus" depart="11.70" departLane="best" from="6020597#0" to="192573105#1"/>
    <trip id="bus32" type="bus_bus" depart="12.08" departLane="best" from="-6012163#0" to="-134713242#0"/>
    <trip id="bus33" type="bus_bus" depart="12.45" departLane="best" from="-829470070#3" to="-6022525#3"/>
    <trip id="bus34" type="bus_bus" depart="12.83" departLane="best" from="6009457#5" to="947877990"/>
    <trip id="bus35" type="bus_bus" depart="13.21" departLane="best" from="70497669#1" to="-934096391"/>
    <trip id="bus36" type="bus_bus" depart="13.59" departLane="best" from="548376472#1" to="116069138#4"/>
    <trip id="bus37" type="bus_bus" depart="13.96" departLane="best" from="-832055725#3" to="197879508"/>
    <trip id="bus38" type="bus_bus" depart="14.34" departLane="best" from="-6018846#10" to="-6017289#0"/>
    <trip id="bus39" type="bus_bus" depart="14.72" departLane="best" from="424993737#0" to="-6021411#2"/>
    <trip id="bus40" type="bus_bus" depart="15.09" departLane="best" from="47988581#8" to="773636598#5"/>
    <trip id="bus41" type="bus_bus" depart="15.47" departLane="best" from="6017821" to="-6011818#3"/>
    <trip id="bus42" type="bus_bus" depart="15.85" departLane="best" from="-986255087#0" to="320073153#4"/>
    <trip id="bus43" type="bus_bus" depart="16.23" departLane="best" from="-34371551#2" to="-192469478#2"/>
    <trip id="bus44" type="bus_bus" depart="16.60" departLane="best" from="425195057#0" to="546214818"/>
    <trip id="bus45" type="bus_bus" depart="16.98" departLane="best" from="-6013307#14" to="138869853#9"/>
    <trip id="bus46" type="bus_bus" depart="17.36" departLane="best" from="-208928491#7" to="111665720#1"/>
    <trip id="bus47" type="bus_bus" depart="17.74" departLane="best" from="-98289629#11" to="390932399#2"/>
    <trip id="bus48" type="bus_bus" depart="18.11" departLane="best" from="975996345#0" to="607189600#1"/>
    <trip id="bus49" type="bus_bus" depart="18.49" departLane="best" from="-110351411#0" to="-6007577#0"/>
    <trip id="bus50" type="bus_bus" depart="18.87" departLane="best" from="6003125#6" to="405241571"/>
    <trip id="bus51" type="bus_bus" depart="19.25" departLane="best" from="6019500#10" to="548257625#1"/>
    <trip id="bus52" type="bus_bus" depart="19.62" departLane="best" from="-451773856#2" to="188164049#0"/>
    <trip id="bus53" type="bus_bus" depart="20.00" departLane="best" from="188783420#1" to="949376646#2"/>
    <trip id="bus54" type="bus_bus" depart="20.38" departLane="best" from="69713208" to="-6021572#0"/>
    <trip id="bus55" type="bus_bus" depart="20.75" departLane="best" from="244330636#23" to="-6006023#7"/>
    <trip id="bus56" type="bus_bus" depart="21.13" departLane="best" from="82577360#2" to="69644400#6"/>
    <trip id="bus57" type="bus_bus" depart="21.51" departLane="best" from="-72835920#9" to="548235584#1"/>
    <trip id="bus58" type="bus_bus" depart="21.89" departLane="best" from="-513598094" to="-5993888#4"/>
    <trip id="bus59" type="bus_bus" depart="22.26" departLane="best" from="6010282#4" to="422243513#9"/>
    <trip id="bus60" type="bus_bus" depart="22.64" departLane="best" from="6012038#10" to="391293980#1"/>
    <trip id="bus61" type="bus_bus" depart="23.02" departLane="best" from="-1016196964" to="948491790#2"/>
    <trip id="bus62" type="bus_bus" depart="23.40" departLane="best" from="114734136#2" to="91651521#1"/>
    <trip id="bus63" type="bus_bus" depart="23.77" departLane="best" from="707194200#1" to="6019432#2"/>
    <trip id="bus64" type="bus_bus" depart="24.15" departLane="best" departSpeed="max" from="-773568579#1" to="200877692#2"/>
    <trip id="bus66" type="bus_bus" depart="24.91" departLane="best" from="314062904#1" to="24709949#10"/>
    <trip id="bus67" type="bus_bus" depart="25.28" departLane="best" from="-244330238#1" to="6011255#1"/>
    <trip id="bus68" type="bus_bus" depart="25.66" departLane="best" from="6010877#12" to="-522075940#0"/>
    <trip id="bus69" type="bus_bus" depart="26.04" departLane="best" from="197613669#1" to="424998874#1"/>
    <trip id="bus70" type="bus_bus" depart="26.42" departLane="best" from="-6018846#9" to="70650774#2"/>
    <trip id="bus71" type="bus_bus" depart="26.79" departLane="best" from="125267668#9" to="6010398#4"/>
    <trip id="bus72" type="bus_bus" depart="27.17" departLane="best" from="380458640#3" to="6008132#7"/>
    <trip id="bus73" type="bus_bus" depart="27.55" departLane="best" from="-6007945#1" to="91651518#6"/>
    <trip id="bus74" type="bus_bus" depart="27.92" departLane="best" from="98289616" to="586050815#3"/>
    <trip id="bus75" type="bus_bus" depart="28.30" departLane="best" from="-138492163#1" to="341937021#2"/>
    <trip id="bus76" type="bus_bus" depart="28.68" departLane="best" from="-498133942#5" to="6012694#4"/>
    <trip id="bus77" type="bus_bus" depart="29.06" departLane="best" from="-948338683#0" to="501246620#1"/>
    <trip id="bus78" type="bus_bus" depart="29.43" departLane="best" from="-6012281#2" to="-6012052#1"/>
    <trip id="bus79" type="bus_bus" depart="29.81" departLane="best" from="-24774511#0" to="546871796#1"/>
    <trip id="bus80" type="bus_bus" depart="30.19" departLane="best" from="-6012144#4" to="806269697#8"/>
    <trip id="bus81" type="bus_bus" depart="30.57" departLane="best" from="-6023107#3" to="24709947#5"/>
    <trip id="bus82" type="bus_bus" depart="30.94" departLane="best" from="-6013331#6" to="6003150#2"/>
    <trip id="bus83" type="bus_bus" depart="31.32" departLane="best" from="6009882#5" to="-540038853#1"/>
    <trip id="bus84" type="bus_bus" depart="31.70" departLane="best" from="93107461#1" to="47990512#8"/>
    <trip id="bus85" type="bus_bus" depart="32.08" departLane="best" from="196920693#9" to="6013331#2"/>
    <trip id="bus86" type="bus_bus" depart="32.45" departLane="best" from="6014491#10" to="6007303#0"/>
    <trip id="bus87" type="bus_bus" depart="32.83" departLane="best" from="390932393" to="182810841#0"/>
    <trip id="bus88" type="bus_bus" depart="33.21" departLane="best" from="125437858#8" to="204145048#6"/>
    <trip id="bus89" type="bus_bus" depart="33.59" departLane="best" from="6007301#0" to="6003410#2"/>
    <trip id="bus90" type="bus_bus" depart="33.96" departLane="best" from="-981883612#2" to="-399096875#3"/>
    <trip id="bus91" type="bus_bus" depart="34.34" departLane="best" from="-1131535531#1" to="-98106798#9"/>
    <trip id="bus92" type="bus_bus" depart="34.72" departLane="best" from="6023488#0" to="-6017828#2"/>
    <trip id="bus93" type="bus_bus" depart="35.09" departLane="best" from="-6006723#2" to="-192818833#3"/>
    <trip id="bus94" type="bus_bus" depart="35.47" departLane="best" from="122088812#1" to="-69644400#0"/>
    <trip id="bus95" type="bus_bus" depart="35.85" departLane="best" from="-6014867#6" to="866982407#0"/>
    <trip id="bus96" type="bus_bus" depart="36.23" departLane="best" from="164024528#34" to="608942264#5"/>
    <trip id="bus97" type="bus_bus" depart="36.60" departLane="best" from="401700516#3" to="-194234259#2"/>
    <trip id="bus98" type="bus_bus" depart="36.98" departLane="best" from="-99238428#5" to="6020456#3"/>
    <trip id="bus99" type="bus_bus" depart="37.36" departLane="best" from="972308860" to="889958596"/>
    <trip id="bus100" type="bus_bus" depart="37.74" departLane="best" from="-6021379#1" to="-6003978#2"/>
    <trip id="bus101" type="bus_bus" depart="38.11" departLane="best" from="206675965#0" to="-6010904#0"/>
    <trip id="bus102" type="bus_bus" depart="38.49" departLane="best" from="-112548706#1" to="203683638#4"/>
    <trip id="bus103" type="bus_bus" depart="38.87" departLane="best" from="1055297761" to="98214839#0"/>
    <trip id="bus104" type="bus_bus" depart="39.25" departLane="best" from="6018886#0" to="6013307#16"/>
    <trip id="bus105" type="bus_bus" depart="39.62" departLane="best" from="-188969410#2" to="146237303#1"/>
    <trip id="bus107" type="bus_bus" depart="40.38" departLane="best" from="423635499#2" to="6007438#1"/>
    <trip id="bus108" type="bus_bus" depart="40.76" departLane="best" from="-59665156#0" to="791811233#10"/>
    <trip id="bus109" type="bus_bus" depart="41.13" departLane="best" from="972060130#1" to="-49664165#4"/>
    <trip id="bus110" type="bus_bus" depart="41.51" departLane="best" from="390354642#9" to="6009875#0"/>
    <trip id="bus111" type="bus_bus" depart="41.89" departLane="best" from="-198707925#0" to="500296361"/>
    <trip id="bus112" type="bus_bus" depart="42.26" departLane="best" from="24709949#16" to="6022760#2"/>
    <trip id="bus113" type="bus_bus" depart="42.64" departLane="best" from="-5996859#3" to="952661991"/>
    <trip id="bus114" type="bus_bus" depart="43.02" departLane="best" from="285838261#4" to="-6006632#2"/>
    <trip id="bus115" type="bus_bus" depart="43.40" departLane="best" from="49664169#2" to="6003643#5"/>
    <trip id="bus116" type="bus_bus" depart="43.77" departLane="best" from="6012964#0" to="499204911#3"/>
    <trip id="bus117" type="bus_bus" depart="44.15" departLane="best" from="73532459#11" to="-6017270#7"/>
    <trip id="bus118" type="bus_bus" depart="44.53" departLane="best" from="49664166#2" to="543404812#0"/>
    <trip id="bus119" type="bus_bus" depart="44.91" departLane="best" from="11998007#20" to="499207430#1"/>
    <trip id="bus120" type="bus_bus" depart="45.28" departLane="best" from="305419559-AddedOffRampEdge" to="936811715#1"/>
    <trip id="bus121" type="bus_bus" depart="45.66" departLane="best" from="-6008195#5" to="6007238#8"/>
    <trip id="bus122" type="bus_bus" depart="46.04" departLane="best" from="-6013441#3" to="116069217#1"/>
    <trip id="bus123" type="bus_bus" depart="46.42" departLane="best" departSpeed="max" from="5999544" to="818841045#3"/>
    <trip id="bus124" type="bus_bus" depart="46.79" departLane="best" from="832055726#1" to="6010258#1"/>
    <trip id="bus125" type="bus_bus" depart="47.17" departLane="best" from="-255072187#22" to="197613669#1"/>
    <trip id="bus126" type="bus_bus" depart="47.55" departLane="best" from="95911556#11" to="98289637#2"/>
    <trip id="bus127" type="bus_bus" depart="47.92" departLane="best" from="-255161395#13" to="-6010877#5"/>
    <trip id="bus128" type="bus_bus" depart="48.30" departLane="best" from="6018886#0" to="93172469#0"/>
    <trip id="bus129" type="bus_bus" depart="48.68" departLane="best" from="711637733#4" to="71694383#1"/>
    <trip id="bus130" type="bus_bus" depart="49.06" departLane="best" from="-98289629#4" to="6002854#1"/>
    <trip id="bus131" type="bus_bus" depart="49.43" departLane="best" from="6018643#2" to="6006211#6"/>
    <trip id="bus132" type="bus_bus" depart="49.81" departLane="best" from="521782062#2" to="-98289468#0"/>
    <trip id="bus133" type="bus_bus" depart="50.19" departLane="best" from="548248539#1" to="-1082898934#2"/>
    <trip id="bus134" type="bus_bus" depart="50.57" departLane="best" from="-6015682#1" to="-806276030#0"/>
    <trip id="bus135" type="bus_bus" depart="50.94" departLane="best" from="589350957" to="-947498314#1"/>
    <trip id="bus136" type="bus_bus" depart="51.32" departLane="best" from="-539742504#3" to="-49639269#1"/>
    <trip id="bus137" type="bus_bus" depart="51.70" departLane="best" from="424998833" to="425003412#1"/>
    <trip id="bus138" type="bus_bus" depart="52.08" departLane="best" from="-6021139#32" to="539730305#0"/>
    <trip id="bus139" type="bus_bus" depart="52.45" departLane="best" from="6006353#4" to="6009284#31"/>
    <trip id="bus140" type="bus_bus" depart="52.83" departLane="best" from="543597787" to="6021700#3"/>
    <trip id="bus141" type="bus_bus" depart="53.21" departLane="best" from="208173127#7" to="806269697#3"/>
    <trip id="bus142" type="bus_bus" depart="53.59" departLane="best" from="6021003#1" to="-373839724#3"/>
    <trip id="bus143" type="bus_bus" depart="53.96" departLane="best" from="-125437858#8" to="-69489467#3"/>
    <trip id="bus144" type="bus_bus" depart="54.34" departLane="best" from="-1061972620" to="6012139"/>
    <trip id="bus145" type="bus_bus" depart="54.72" departLane="best" from="543989585" to="-6021359#6"/>
    <trip id="bus146" type="bus_bus" depart="55.09" departLane="best" from="6008126" to="425001832"/>
    <trip id="bus147" type="bus_bus" depart="55.47" departLane="best" from="130451928" to="-1088194792#0"/>
    <trip id="bus148" type="bus_bus" depart="55.85" departLane="best" from="777914545#2" to="424992998"/>
    <trip id="bus149" type="bus_bus" depart="56.23" departLane="best" from="6018757#3" to="498401120#2"/>
    <trip id="bus150" type="bus_bus" depart="56.60" departLane="best" from="-548218074#1" to="521818836#0"/>
    <trip id="bus151" type="bus_bus" depart="56.98" departLane="best" from="77434520#2" to="77438562#1"/>
    <trip id="bus152" type="bus_bus" depart="57.36" departLane="best" from="6013749#1" to="607189599#1"/>
    <trip id="bus153" type="bus_bus" depart="57.74" departLane="best" from="765355176" to="6010221#1"/>
    <trip id="bus154" type="bus_bus" depart="58.11" departLane="best" from="6014867#20" to="424991761#0"/>
    <trip id="bus155" type="bus_bus" depart="58.49" departLane="best" from="6012146" to="-72835924#2"/>
    <trip id="bus156" type="bus_bus" depart="58.87" departLane="best" from="113926358#2" to="543597790"/>
    <trip id="bus157" type="bus_bus" depart="59.25" departLane="best" from="-59665149#3" to="91651531#1"/>
    <trip id="bus158" type="bus_bus" depart="59.62" departLane="best" from="-60449490#0" to="98106798#10"/>
    <trip id="bus160" type="bus_bus" depart="60.38" departLane="best" from="-11998007#14" to="6008674"/>
    <trip id="bus161" type="bus_bus" depart="60.76" departLane="best" from="-947501711#0" to="91651546#3"/>
    <trip id="bus162" type="bus_bus" depart="61.13" departLane="best" from="6014143#28" to="-653123344#9"/>
    <trip id="bus164" type="bus_bus" depart="61.89" departLane="best" from="6012857#1" to="-425195056"/>
    <trip id="bus165" type="bus_bus" depart="62.26" departLane="best" from="69489843#11" to="6023713#5"/>
    <trip id="bus166" type="bus_bus" depart="62.64" departLane="best" from="-6011271#0" to="6017329#5"/>
    <trip id="bus167" type="bus_bus" depart="63.02" departLane="best" from="192464199#0" to="-837239919#6"/>
    <trip id="bus168" type="bus_bus" depart="63.40" departLane="best" from="6013544#2" to="6013141"/>
    <trip id="bus169" type="bus_bus" depart="63.77" departLane="best" from="-117440763#10" to="-6007537#9"/>
    <trip id="bus170" type="bus_bus" depart="64.15" departLane="best" from="-926517663#15" to="66210787#4"/>
    <trip id="bus171" type="bus_bus" depart="64.53" departLane="best" from="968721061#3" to="69697762#7"/>
    <trip id="bus172" type="bus_bus" depart="64.91" departLane="best" from="-546432252#2" to="118671482#1"/>
    <trip id="bus173" type="bus_bus" depart="65.28" departLane="best" from="98144249#3" to="402053903#5"/>
    <trip id="bus174" type="bus_bus" depart="65.66" departLane="best" from="944679623#7" to="-49639267#0"/>
    <trip id="bus175" type="bus_bus" depart="66.04" departLane="best" from="-974654197" to="-6006023#3"/>
    <trip id="bus176" type="bus_bus" depart="66.42" departLane="best" from="953001147#3" to="6021975#3"/>
    <trip id="bus177" type="bus_bus" depart="66.79" departLane="best" from="-425003416#1" to="-187473022#7"/>
    <trip id="bus178" type="bus_bus" depart="67.17" departLane="best" from="6007238#0" to="-926517664#3"/>
    <trip id="bus179" type="bus_bus" depart="67.55" departLane="best" from="503663555#4" to="-326116172#1"/>
    <trip id="bus180" type="bus_bus" depart="67.93" departLane="best" from="1070477231#11" to="49642241#6"/>
    <trip id="bus181" type="bus_bus" depart="68.30" departLane="best" departSpeed="max" from="-6015968#1" to="6006613#4"/>
    <trip id="bus182" type="bus_bus" depart="68.68" departLane="best" from="1030325416#2" to="-882223498#4"/>
    <trip id="bus183" type="bus_bus" depart="69.06" departLane="best" from="375720263#3" to="6007504#9"/>
    <trip id="bus184" type="bus_bus" depart="69.43" departLane="best" departSpeed="max" from="6008139#0" to="6003250#1"/>
    <trip id="bus185" type="bus_bus" depart="69.81" departLane="best" from="98289485#1" to="-244718318#9"/>
    <trip id="bus186" type="bus_bus" depart="70.19" departLane="best" from="59665156#0" to="949869767#8"/>
    <trip id="bus187" type="bus_bus" depart="70.57" departLane="best" from="-818870084#5" to="6021878#3"/>
    <trip id="bus188" type="bus_bus" depart="70.94" departLane="best" from="6006470#2" to="822091931#1"/>
    <trip id="bus189" type="bus_bus" depart="71.32" departLane="best" from="-777914544#0" to="127009906#9"/>
    <trip id="bus190" type="bus_bus" depart="71.70" departLane="best" from="113104121#0" to="77438562#4"/>
    <trip id="bus191" type="bus_bus" depart="72.08" departLane="best" from="-513588439" to="138419313#1"/>
    <trip id="bus192" type="bus_bus" depart="72.45" departLane="best" from="947452468#0" to="-6003944#2"/>
    <trip id="bus193" type="bus_bus" depart="72.83" departLane="best" from="-77434522#6" to="542298302#0"/>
    <trip id="bus194" type="bus_bus" depart="73.21" departLane="best" from="-73920724#2" to="521796391#1"/>
    <trip id="bus195" type="bus_bus" depart="73.59" departLane="best" from="-1013882047#4" to="-73532459#5"/>
    <trip id="bus196" type="bus_bus" depart="73.96" departLane="best" from="279670985#1" to="49664322#0"/>
    <trip id="bus197" type="bus_bus" depart="74.34" departLane="best" from="548258410#1" to="202502984#1"/>
    <trip id="bus198" type="bus_bus" depart="74.72" departLane="best" from="-161725873#5" to="-6010904#0"/>
    <trip id="bus199" type="bus_bus" depart="75.09" departLane="best" from="196948957#3" to="791811231#21"/>
    <trip id="bus200" type="bus_bus" depart="75.47" departLane="best" from="6013733#0" to="6004427#1"/>
    <trip id="bus201" type="bus_bus" depart="75.85" departLane="best" from="-305419560#0" to="335304559#2"/>
    <trip id="bus202" type="bus_bus" depart="76.23" departLane="best" from="543401293-AddedOffRampEdge" to="973959875#2"/>
    <trip id="bus203" type="bus_bus" depart="76.60" departLane="best" from="6015973#1" to="6010222#1"/>
    <trip id="bus204" type="bus_bus" depart="76.98" departLane="best" from="-6001108#2" to="-6012694#2"/>
    <trip id="bus205" type="bus_bus" depart="77.36" departLane="best" from="-6007756#1" to="-11961384#7"/>
    <trip id="bus206" type="bus_bus" depart="77.74" departLane="best" from="-6014301#3" to="218390240#1"/>
    <trip id="bus207" type="bus_bus" depart="78.11" departLane="best" from="6021411#3" to="-255072187#27"/>
    <trip id="bus208" type="bus_bus" depart="78.49" departLane="best" departSpeed="max" from="117436038#0" to="546463710"/>
    <trip id="bus209" type="bus_bus" depart="78.87" departLane="best" from="-6007204#3" to="6005772#0"/>
    <trip id="bus210" type="bus_bus" depart="79.25" departLane="best" from="-225157476#4" to="-6015764#1"/>
    <trip id="bus211" type="bus_bus" depart="79.62" departLane="best" from="548389771#4" to="-1069577973#0"/>
    <trip id="bus212" type="bus_bus" depart="80.00" departLane="best" from="6009284#11" to="-6012050#3"/>
    <trip id="bus213" type="bus_bus" depart="80.38" departLane="best" from="-424994494#3" to="161007709#2"/>
    <trip id="bus214" type="bus_bus" depart="80.76" departLane="best" from="6004990#1" to="950268669#3"/>
    <trip id="bus215" type="bus_bus" depart="81.13" departLane="best" from="-287417219#1" to="-194234243#11"/>
    <trip id="bus216" type="bus_bus" depart="81.51" departLane="best" from="-6014867#1" to="6021906#2"/>
    <trip id="bus217" type="bus_bus" depart="81.89" departLane="best" from="192254087#0" to="6014682#6"/>
    <trip id="bus218" type="bus_bus" depart="82.26" departLane="best" from="-5993904#5" to="98289481#12"/>
    <trip id="bus219" type="bus_bus" depart="82.64" departLane="best" departSpeed="max" from="49666846" to="949071696#1"/>
    <trip id="bus220" type="bus_bus" depart="83.02" departLane="best" from="73920725#7" to="541980625"/>
    <trip id="bus221" type="bus_bus" depart="83.40" departLane="best" from="-6006439#1" to="-289676216#7"/>
    <trip id="bus222" type="bus_bus" depart="83.77" departLane="best" from="6018265#2" to="47990481#1"/>
    <trip id="bus223" type="bus_bus" depart="84.15" departLane="best" from="-765165381#1" to="6009493#3"/>
    <trip id="bus224" type="bus_bus" depart="84.53" departLane="best" from="-197613665#16" to="6020658#0"/>
    <trip id="bus225" type="bus_bus" depart="84.91" departLane="best" from="-6014491#9" to="548218076#1"/>
    <trip id="bus226" type="bus_bus" depart="85.28" departLane="best" from="6010877#11" to="364597930#5"/>
    <trip id="bus227" type="bus_bus" depart="85.66" departLane="best" from="541980633#1" to="-647085738"/>
    <trip id="bus228" type="bus_bus" depart="86.04" departLane="best" from="-274894271" to="-72838167#2"/>
    <trip id="bus229" type="bus_bus" depart="86.42" departLane="best" from="-6020915#4" to="-948324217#10"/>
    <trip id="bus230" type="bus_bus" depart="86.79" departLane="best" from="-383087791#3" to="544646177"/>
    <trip id="bus231" type="bus_bus" depart="87.17" departLane="best" from="-6012323#4" to="6005560#4"/>
    <trip id="bus232" type="bus_bus" depart="87.55" departLane="best" from="114055283#8" to="-424991335#5"/>
    <trip id="bus233" type="bus_bus" depart="87.93" departLane="best" from="6004697#1" to="-6009581#2"/>
    <trip id="bus234" type="bus_bus" depart="88.30" departLane="best" from="11998022#7" to="80318088#1"/>
    <trip id="bus235" type="bus_bus" depart="88.68" departLane="best" from="-6022415#4" to="6011650#2"/>
    <trip id="bus236" type="bus_bus" depart="89.06" departLane="best" from="589350659" to="-1070477231#7"/>
    <trip id="bus237" type="bus_bus" depart="89.43" departLane="best" from="-973959875#2" to="6010365#3"/>
    <trip id="bus238" type="bus_bus" depart="89.81" departLane="best" from="6021764#4" to="949376642#2"/>
    <trip id="bus239" type="bus_bus" depart="90.19" departLane="best" from="11998007#13" to="6009801"/>
    <trip id="bus240" type="bus_bus" depart="90.57" departLane="best" from="391697238#6" to="539679016#1"/>
    <trip id="bus241" type="bus_bus" depart="90.94" departLane="best" departSpeed="max" from="-6010988" to="-6011833#0"/>
    <trip id="bus242" type="bus_bus" depart="91.32" departLane="best" from="-138388032#12" to="-127070309#0"/>
    <trip id="bus243" type="bus_bus" depart="91.70" departLane="best" from="948331273#1" to="6004110#0"/>
    <trip id="bus244" type="bus_bus" depart="92.08" departLane="best" from="-113921319#10" to="6003721#3"/>
    <trip id="bus245" type="bus_bus" depart="92.45" departLane="best" from="194234259#0" to="521985670#10"/>
    <trip id="bus246" type="bus_bus" depart="92.83" departLane="best" from="540065137#0" to="-125437858#11"/>
    <trip id="bus247" type="bus_bus" depart="93.21" departLane="best" departSpeed="max" from="109485102#0" to="455266213#2"/>
    <trip id="bus248" type="bus_bus" depart="93.59" departLane="best" departSpeed="max" from="-540051771#7" to="198707918"/>
    <trip id="bus249" type="bus_bus" depart="93.96" departLane="best" from="194234243#7" to="111061140#3"/>
    <trip id="bus250" type="bus_bus" depart="94.34" departLane="best" departSpeed="max" from="-6009518" to="-949167931#1"/>
    <trip id="bus251" type="bus_bus" depart="94.72" departLane="best" from="6010203#4" to="111061144#0"/>
    <trip id="bus252" type="bus_bus" depart="95.10" departLane="best" from="6009374#10" to="6019500#18"/>
    <trip id="bus253" type="bus_bus" depart="95.47" departLane="best" from="-6015569#2" to="289676216#15"/>
    <trip id="bus254" type="bus_bus" depart="95.85" departLane="best" from="-114734125#1" to="-422391322#0"/>
    <trip id="bus255" type="bus_bus" depart="96.23" departLane="best" from="-998607753#0" to="98289547#0"/>
    <trip id="bus256" type="bus_bus" depart="96.60" departLane="best" from="548217574" to="6013002#2"/>
    <trip id="bus257" type="bus_bus" depart="96.98" departLane="best" from="548235567#0" to="6010434#1"/>
    <trip id="bus258" type="bus_bus" depart="97.36" departLane="best" from="-948471418#0" to="-6008248#0"/>
    <trip id="bus259" type="bus_bus" depart="97.74" departLane="best" from="1151270939#8" to="5993413"/>
    <trip id="bus260" type="bus_bus" depart="98.11" departLane="best" from="506126676#4" to="6003176#2"/>
    <trip id="bus261" type="bus_bus" depart="98.49" departLane="best" from="424997835" to="-6011650#2"/>