<?xml version="1.0" encoding="UTF-8"?>

<!-- generated on 2023-05-31 10:02:50 by Eclipse SUMO netconvert Version 1.16.0
<configuration xmlns:xsi="http://www.w3.org/2001/XMLSchema-instance" xsi:noNamespaceSchemaLocation="http://sumo.dlr.de/xsd/netconvertConfiguration.xsd">

    <input>
        <type-files value="${SUMO_HOME}/data/typemap/osmNetconvert.typ.xml,${SUMO_HOME}/data/typemap/osmNetconvertAerialway.typ.xml"/>
        <osm-files value="osm_bbox.osm.xml.gz"/>
    </input>

    <output>
        <output-file value="osm.net.xml.gz"/>
        <output.street-names value="true"/>
        <output.original-names value="true"/>
        <ptstop-output value="osm_stops.add.xml"/>
        <ptline-output value="osm_ptlines.xml"/>
    </output>

    <projection>
        <proj.utm value="true"/>
    </projection>

    <processing>
        <geometry.remove value="true"/>
        <roundabouts.guess value="true"/>
    </processing>

    <tls_building>
        <tls.discard-simple value="true"/>
        <tls.join value="true"/>
        <tls.guess-signals value="true"/>
        <tls.default-type value="actuated"/>
    </tls_building>

    <ramp_guessing>
        <ramps.guess value="true"/>
    </ramp_guessing>

    <junctions>
        <junctions.join value="true"/>
        <junctions.corner-detail value="5"/>
    </junctions>

    <railway>
        <railway.topology.repair value="true"/>
    </railway>

</configuration>
-->

<additional xmlns:xsi="http://www.w3.org/2001/XMLSchema-instance" xsi:noNamespaceSchemaLocation="http://sumo.dlr.de/xsd/additional_file.xsd">
    <busStop id="-1148081604" name="West Baltimore" lane="-1025703949_0" startPos="335.86" endPos="535.86" friendlyPos="true">
        <access lane="1037823562_0" pos="6.62" length="25.81" friendlyPos="1"/>
        <access lane="1037823563_0" pos="0.00" length="10.48" friendlyPos="1"/>
        <access lane="482279496#2_0" pos="28.95" length="21.50" friendlyPos="1"/>
        <access lane="482279497#8_0" pos="46.52" length="33.17" friendlyPos="1"/>
        <access lane="99251703_0" pos="10.37" length="15.46" friendlyPos="1"/>
    </busStop>
    <busStop id="-1148084160" name="West Baltimore" lane="-72838193_0" startPos="31.47" endPos="231.47" friendlyPos="true">
        <access lane="1037823564_0" pos="0.00" length="25.88" friendlyPos="1"/>
        <access lane="482279497#8_0" pos="63.92" length="34.52" friendlyPos="1"/>
        <access lane="482279498_0" pos="0.20" length="32.42" friendlyPos="1"/>
        <access lane="99251708_0" pos="14.85" length="12.54" friendlyPos="1"/>
        <access lane="994973581#1_0" pos="38.73" length="35.01" friendlyPos="1"/>
    </busStop>
    <busStop id="-1148313063" name="Baltimore Penn Station" lane="-99276391_0" startPos="0.00" endPos="200.00" friendlyPos="true">
        <access lane="-766150218_0" pos="0.00" length="12.11" friendlyPos="1"/>
        <access lane="-766150219_0" pos="6.77" length="24.44" friendlyPos="1"/>
        <access lane="766150218_0" pos="75.45" length="10.14" friendlyPos="1"/>
        <access lane="766150219_0" pos="83.16" length="21.44" friendlyPos="1"/>
        <access lane="833243507_0" pos="11.04" length="23.58" friendlyPos="1"/>
    </busStop>
    <busStop id="-1148313194" name="Baltimore Penn Station" lane="-70856130_0" startPos="0.00" endPos="200.00" friendlyPos="true">
        <access lane="1065376180#0_0" pos="0.00" length="48.23" friendlyPos="1"/>
        <access lane="1065376180#1_0" pos="0.00" length="57.85" friendlyPos="1"/>
        <access lane="1065376183#1_0" pos="0.20" length="55.98" friendlyPos="1"/>
        <access lane="1065376185_0" pos="0.20" length="54.24" friendlyPos="1"/>
        <access lane="69530989#2_0" pos="17.73" length="51.25" friendlyPos="1"/>
    </busStop>
    <busStop id="-1148313198" name="Baltimore Penn Station" lane="-902082915#0_0" startPos="0.00" endPos="200.00" friendlyPos="true">
        <access lane="-766150218_0" pos="0.00" length="27.10" friendlyPos="1"/>
        <access lane="-766150219_0" pos="0.00" length="8.90" friendlyPos="1"/>
        <access lane="-946390750#0_0" pos="57.36" length="16.63" friendlyPos="1"/>
        <access lane="766150219_0" pos="89.93" length="7.17" friendlyPos="1"/>
        <access lane="833243507_0" pos="25.54" length="11.83" friendlyPos="1"/>
    </busStop>
    <busStop id="-1148313241" name="Baltimore Penn Station" lane="-69545484#0_0" startPos="0.00" endPos="200.00" friendlyPos="true">
        <access lane="-766150218_0" pos="0.00" length="26.33" friendlyPos="1"/>
        <access lane="-766150219_0" pos="0.00" length="14.13" friendlyPos="1"/>
        <access lane="-946390750#0_0" pos="58.19" length="22.56" friendlyPos="1"/>
        <access lane="766150219_0" pos="89.93" length="11.66" friendlyPos="1"/>
        <access lane="833243507_0" pos="24.71" length="17.76" friendlyPos="1"/>
    </busStop>
    <busStop id="-1148313266" name="Baltimore Penn Station" lane="-69545486#0_0" startPos="0.00" endPos="200.00" friendlyPos="true">
        <access lane="-766150218_0" pos="0.00" length="31.49" friendlyPos="1"/>
        <access lane="-766150219_0" pos="0.00" length="7.14" friendlyPos="1"/>
        <access lane="-946390750#0_0" pos="55.31" length="8.49" friendlyPos="1"/>
        <access lane="766150219_0" pos="89.93" length="8.68" friendlyPos="1"/>
        <access lane="833243507_0" pos="27.59" length="3.69" friendlyPos="1"/>
    </busStop>
    <busStop id="-288290287" name="Mondawmin" lane="-834843615#0_0" startPos="5958.98" endPos="6158.98" friendlyPos="true">
        <access lane="5996123#1_0" pos="15.81" length="15.67" friendlyPos="1"/>
        <access lane="877651211#1_0" pos="25.62" length="22.07" friendlyPos="1"/>
        <access lane="877651232#0_0" pos="27.29" length="3.67" friendlyPos="1"/>
        <access lane="877651232#1_0" pos="0.00" length="22.91" friendlyPos="1"/>
        <access lane="877651233_0" pos="0.00" length="19.18" friendlyPos="1"/>
    </busStop>
    <busStop id="-288290290" name="Upton–Avenue Market" lane="-834843615#0_0" startPos="3763.78" endPos="3963.78" friendlyPos="true">
        <access lane="-711678907#5_0" pos="10.54" length="1.99" friendlyPos="1"/>
        <access lane="1011351389#1_0" pos="10.24" length="13.82" friendlyPos="1"/>
        <access lane="1011351462#1_0" pos="60.10" length="8.66" friendlyPos="1"/>
        <access lane="1154298203_0" pos="0.00" length="16.23" friendlyPos="1"/>
        <access lane="711678907#5_0" pos="60.15" length="6.79" friendlyPos="1"/>
    </busStop>
    <busStop id="-288290300" name="State Center" lane="-834843615#0_0" startPos="2542.92" endPos="2742.92" friendlyPos="true">
        <access lane="1066025314#1_0" pos="77.91" length="21.78" friendlyPos="1"/>
        <access lane="279676298#0_0" pos="32.30" length="16.77" friendlyPos="1"/>
        <access lane="468893369#6_0" pos="0.00" length="21.03" friendlyPos="1"/>
        <access lane="468893369#7_0" pos="0.20" length="19.83" friendlyPos="1"/>
        <access lane="949167913#2_0" pos="0.00" length="23.72" friendlyPos="1"/>
    </busStop>
    <busStop id="-288290312" name="Shot Tower/Market Place" lane="-834843615#0_0" startPos="0.00" endPos="200.00" friendlyPos="true">
        <access lane="113296955#2_0" pos="0.00" length="28.10" friendlyPos="1"/>
        <access lane="113296956#0_0" pos="0.00" length="27.83" friendlyPos="1"/>
        <access lane="1171002498#1_0" pos="0.00" length="26.16" friendlyPos="1"/>
        <access lane="1171002502#0_0" pos="0.00" length="11.54" friendlyPos="1"/>
        <access lane="1171002503#0_0" pos="0.00" length="11.95" friendlyPos="1"/>
    </busStop>
    <busStop id="-288290321" name="Johns Hopkins Hospital" lane="-834843615#1_0" startPos="0.00" endPos="200.00" friendlyPos="true">
        <access lane="1161765145#0_0" pos="1.06" length="11.01" friendlyPos="1"/>
        <access lane="1161765145#1_0" pos="4.29" length="1.23" friendlyPos="1"/>
        <access lane="1161765150_0" pos="0.00" length="17.00" friendlyPos="1"/>
        <access lane="548389767#5_0" pos="24.79" length="11.14" friendlyPos="1"/>
        <access lane="998062549_0" pos="0.68" length="8.35" friendlyPos="1"/>
    </busStop>
    <busStop id="-288292760" name="Lexington Market" lane="-834843615#0_0" startPos="1525.28" endPos="1725.28" friendlyPos="true">
        <access lane="-543583832#1_0" pos="0.88" length="5.74" friendlyPos="1"/>
        <access lane="393742107#3_0" pos="0.20" length="15.97" friendlyPos="1"/>
        <access lane="393742107#4_0" pos="0.00" length="11.60" friendlyPos="1"/>
        <access lane="393742107#5_0" pos="0.00" length="13.73" friendlyPos="1"/>
        <access lane="543583832#1_0" pos="60.29" length="8.66" friendlyPos="1"/>
    </busStop>
    <busStop id="-288294924" name="Penn–North" lane="-834843615#0_0" startPos="4662.37" endPos="4862.37" friendlyPos="true">
        <access lane="1054154210_0" pos="32.49" length="12.31" friendlyPos="1"/>
        <access lane="1054154211_0" pos="30.84" length="9.03" friendlyPos="1"/>
        <access lane="1061595124#0_0" pos="27.62" length="11.13" friendlyPos="1"/>
        <access lane="1061595124#1_0" pos="0.00" length="11.17" friendlyPos="1"/>
        <access lane="1061595126_0" pos="7.82" length="5.84" friendlyPos="1"/>
    </busStop>
    <busStop id="-4501242775" lane="-192469469#1_0" startPos="17.61" endPos="32.61" friendlyPos="true" lines="65"/>
    <busStop id="-49484584" lane="-201637236#0_0" startPos="79.10" endPos="94.10" friendlyPos="true" lines="76 80"/>
    <busStop id="-49554496" name="Baltimore Camden Station" lane="-902038850#0_0" startPos="50.70" endPos="250.70" friendlyPos="true">
        <access lane="1083856296_0" pos="5.84" length="6.48" friendlyPos="1"/>
        <access lane="1083856297_0" pos="3.09" length="13.36" friendlyPos="1"/>
        <access lane="1083902066#0_0" pos="0.00" length="17.67" friendlyPos="1"/>
        <access lane="473662314_0" pos="0.00" length="17.90" friendlyPos="1"/>
        <access lane="473662315#0_0" pos="57.72" length="24.09" friendlyPos="1"/>
    </busStop>
    <busStop id="-5078269809" lane="-424991223#0_0" startPos="7.16" endPos="22.16" friendlyPos="true" lines="BR"/>
    <busStop id="-5397313082" name="Greenmount Avenue &amp; 25th Street Southbound" lane="-424994494#0_0" startPos="0.00" endPos="2.02" friendlyPos="true"/>
    <busStop id="-6117399253" lane="-98059774_0" startPos="45.94" endPos="60.94" friendlyPos="true" lines="BL"/>
    <busStop id="-6117406494" lane="-195248665#5_0" startPos="35.55" endPos="50.55" friendlyPos="true" lines="BL"/>
    <busStop id="-6117413546" lane="-197879525#5_0" startPos="25.53" endPos="40.53" friendlyPos="true" lines="BL 63"/>
    <busStop id="-6125894136" lane="-596701866_0" startPos="34.69" endPos="49.69" friendlyPos="true" lines="RD"/>
    <busStop id="-6131821633" lane="-424992508#1_0" startPos="6.68" endPos="21.68" friendlyPos="true" lines="95"/>
    <busStop id="-6138426481" lane="-544544770#0_0" startPos="26.79" endPos="41.79" friendlyPos="true" lines="94"/>
    <busStop id="-6967935454" name="Bentalou Street &amp; North Avenue Southbound" lane="-241186924#1_0" startPos="7.26" endPos="22.26" friendlyPos="true" lines="26"/>
    <busStop id="-6978440843" name="Reisterstown Road &amp; Elgin Avenue Southbound" lane="-543392740_0" startPos="39.19" endPos="54.19" friendlyPos="true" lines="NV LM"/>
    <busStop id="-6981779108" name="Reisterstown Road &amp; Cold Spring Lane Southbound" lane="-128117919#1_0" startPos="0.00" endPos="8.43" friendlyPos="true" lines="83"/>
    <busStop id="-6981792422" name="Dolfield Avenue &amp; Cold Spring Lane Southbound" lane="-237887538#5_0" startPos="12.64" endPos="27.64" friendlyPos="true" lines="82"/>
    <busStop id="-6981793083" name="Park Heights Avenue &amp; Spaulding Avenue Southbound" lane="-968721073#7_0" startPos="102.47" endPos="117.47" friendlyPos="true" lines="85"/>
    <busStop id="-6981830888" name="Greenspring Avenue &amp; Dupont Avenue Southbound" lane="-544896745#0_0" startPos="76.37" endPos="91.37" friendlyPos="true" lines="91"/>
    <busStop id="-7167585619" name="FlixBus Baltimore" lane="-195774002#0_0" startPos="1.25" endPos="16.25" friendlyPos="true" lines="2602"/>
    <busStop id="-7785026032" name="Charles Center" lane="-834843616_0" startPos="131.06" endPos="331.06" friendlyPos="true">
        <access lane="-6021708_0" pos="58.40" length="67.54" friendlyPos="1"/>
        <access lane="6011099#1_0" pos="0.00" length="66.10" friendlyPos="1"/>
        <access lane="6021708_0" pos="39.43" length="62.74" friendlyPos="1"/>
        <access lane="6023074#1_1" pos="37.06" length="5.34" friendlyPos="1"/>
        <access lane="98144349#1_0" pos="43.29" length="68.88" friendlyPos="1"/>
    </busStop>
    <busStop id="-7785026033" name="Charles Center" lane="-834843615#0_0" startPos="676.93" endPos="876.93" friendlyPos="true">
        <access lane="-6021708_0" pos="58.29" length="76.23" friendlyPos="1"/>
        <access lane="6011099#1_0" pos="0.00" length="68.97" friendlyPos="1"/>
        <access lane="6021708_0" pos="39.54" length="71.43" friendlyPos="1"/>
        <access lane="6023074#1_1" pos="37.14" length="3.36" friendlyPos="1"/>
        <access lane="98144349#1_0" pos="43.29" length="67.18" friendlyPos="1"/>
    </busStop>
    <busStop id="-8379198654" name="West Baltimore" lane="-1025703950_0" startPos="333.94" endPos="533.94" friendlyPos="true">
        <access lane="1037823563_0" pos="0.00" length="15.52" friendlyPos="1"/>
        <access lane="482279496#2_0" pos="28.95" length="27.94" friendlyPos="1"/>
        <access lane="482279497#8_0" pos="49.87" length="29.15" friendlyPos="1"/>
        <access lane="99251703_0" pos="10.37" length="19.37" friendlyPos="1"/>
        <access lane="99251708_0" pos="14.85" length="27.86" friendlyPos="1"/>
    </busStop>
    <busStop id="-8379198655" name="West Baltimore" lane="-793317795_0" startPos="243.67" endPos="443.67" friendlyPos="true">
        <access lane="1037823563_0" pos="0.00" length="33.15" friendlyPos="1"/>
        <access lane="1037823564_0" pos="0.00" length="28.95" friendlyPos="1"/>
        <access lane="482279498_0" pos="0.20" length="37.71" friendlyPos="1"/>
        <access lane="99251708_0" pos="14.85" length="18.31" friendlyPos="1"/>
        <access lane="994973581#1_0" pos="42.33" length="32.63" friendlyPos="1"/>
    </busStop>
    <busStop id="-842581199" name="Baltimore Camden Station" lane="-902038843#0_0" startPos="50.71" endPos="250.71" friendlyPos="true">
        <access lane="1083856296_0" pos="6.20" length="13.95" friendlyPos="1"/>
        <access lane="1083856297_0" pos="3.43" length="5.88" friendlyPos="1"/>
        <access lane="1083902066#0_0" pos="0.00" length="12.04" friendlyPos="1"/>
        <access lane="1083902066#2_0" pos="0.00" length="23.13" friendlyPos="1"/>
        <access lane="473662314_0" pos="0.00" length="13.89" friendlyPos="1"/>
    </busStop>
    <busStop id="-842581360" name="Baltimore Camden Station" lane="-70606502#0_0" startPos="51.47" endPos="251.47" friendlyPos="true">
        <access lane="-452936679#0_0" pos="50.12" length="20.53" friendlyPos="1"/>
        <access lane="-53143158#2_0" pos="0.00" length="16.57" friendlyPos="1"/>
        <access lane="1083856296_0" pos="5.22" length="6.87" friendlyPos="1"/>
        <access lane="452936679#0_0" pos="0.47" length="25.33" friendlyPos="1"/>
        <access lane="473662315#0_0" pos="57.18" length="10.74" friendlyPos="1"/>
    </busStop>
    <busStop id="-844091659" name="Johns Hopkins Hospital" lane="-834843616_0" startPos="2433.96" endPos="2633.96" friendlyPos="true">
        <access lane="1161188065#0_0" pos="3.14" length="16.24" friendlyPos="1"/>
        <access lane="1161188065#1_0" pos="2.80" length="7.83" friendlyPos="1"/>
        <access lane="1161765145#1_0" pos="5.61" length="9.30" friendlyPos="1"/>
        <access lane="196948954#1_0" pos="0.69" length="16.03" friendlyPos="1"/>
        <access lane="998062549_0" pos="1.23" length="2.63" friendlyPos="1"/>
    </busStop>
    <busStop id="-844091805" name="Shot Tower/Market Place" lane="-834843616_0" startPos="873.35" endPos="1073.35" friendlyPos="true">
        <access lane="113296955#2_0" pos="0.00" length="24.46" friendlyPos="1"/>
        <access lane="1171002502#0_0" pos="0.00" length="5.42" friendlyPos="1"/>
        <access lane="1171002502#1_0" pos="0.00" length="28.72" friendlyPos="1"/>
        <access lane="1171002503#0_0" pos="0.00" length="6.13" friendlyPos="1"/>
        <access lane="424997828#0_0" pos="35.31" length="26.60" friendlyPos="1"/>
    </busStop>
    <busStop id="-844696708" name="Woodberry" lane="-98040440#2_0" startPos="0.00" endPos="200.00" friendlyPos="true">
        <access lane="-114750996_0" pos="25.19" length="8.13" friendlyPos="1"/>
        <access lane="-386732944#0_0" pos="0.00" length="34.21" friendlyPos="1"/>
        <access lane="-6018611#0_0" pos="99.29" length="33.43" friendlyPos="1"/>
        <access lane="-947542416_0" pos="5.64" length="32.51" friendlyPos="1"/>
        <access lane="114750996_0" pos="117.79" length="12.93" friendlyPos="1"/>
    </busStop>
    <busStop id="10592712724" lane="1136311669#1_0" startPos="1.62" endPos="16.62" friendlyPos="true"/>
    <busStop id="1148081604" name="West Baltimore" lane="99251609_0" startPos="48.42" endPos="248.42" friendlyPos="true" lines="Penn">
        <access lane="1037823562_0" pos="6.62" length="25.81" friendlyPos="1"/>
        <access lane="1037823563_0" pos="0.00" length="10.48" friendlyPos="1"/>
        <access lane="482279496#2_0" pos="28.95" length="21.50" friendlyPos="1"/>
        <access lane="482279497#8_0" pos="46.52" length="33.17" friendlyPos="1"/>
        <access lane="99251703_0" pos="10.37" length="15.46" friendlyPos="1"/>
    </busStop>
    <busStop id="1148084160" name="West Baltimore" lane="793317792_0" startPos="241.42" endPos="441.42" friendlyPos="true" lines="Penn">
        <access lane="1037823564_0" pos="0.00" length="25.88" friendlyPos="1"/>
        <access lane="482279497#8_0" pos="63.92" length="34.52" friendlyPos="1"/>
        <access lane="482279498_0" pos="0.20" length="32.42" friendlyPos="1"/>
        <access lane="99251708_0" pos="14.85" length="12.54" friendlyPos="1"/>
        <access lane="994973581#1_0" pos="38.73" length="35.01" friendlyPos="1"/>
    </busStop>
    <busStop id="1148313063" name="Baltimore Penn Station" lane="99276391_0" startPos="154.70" endPos="354.70" friendlyPos="true">
        <access lane="-766150218_0" pos="0.00" length="12.11" friendlyPos="1"/>
        <access lane="-766150219_0" pos="6.77" length="24.44" friendlyPos="1"/>
        <access lane="766150218_0" pos="75.45" length="10.14" friendlyPos="1"/>
        <access lane="766150219_0" pos="83.16" length="21.44" friendlyPos="1"/>
        <access lane="833243507_0" pos="11.04" length="23.58" friendlyPos="1"/>
    </busStop>
    <busStop id="1148313142" name="Baltimore Penn Station" lane="1025697176#1_0" startPos="136.45" endPos="336.45" friendlyPos="true" lines="Vermonter Acela Northeast Regional Cardinal Crescent Penn Silver Meteor Silver Star Carolinian Palmetto">
        <access lane="-294956178#1_0" pos="381.40" length="16.71" friendlyPos="1"/>
        <access lane="1065376172#1_0" pos="71.04" length="34.10" friendlyPos="1"/>
        <access lane="11961365#2_0" pos="71.00" length="38.99" friendlyPos="1"/>
        <access lane="294956178#1_0" pos="91.68" length="21.51" friendlyPos="1"/>
        <access lane="774906060#0_0" pos="90.54" length="45.30" friendlyPos="1"/>
    </busStop>
    <busStop id="1148313180" name="Baltimore Penn Station" lane="69545483#0_0" startPos="18.52" endPos="218.52" friendlyPos="true" lines="Acela">
        <access lane="-294956178#1_0" pos="381.23" length="31.02" friendlyPos="1"/>
        <access lane="1065376172#1_0" pos="62.58" length="27.47" friendlyPos="1"/>
        <access lane="11961365#2_0" pos="62.56" length="32.31" friendlyPos="1"/>
        <access lane="294956178#1_0" pos="91.85" length="35.82" friendlyPos="1"/>
        <access lane="774906060#0_0" pos="89.82" length="59.57" friendlyPos="1"/>
    </busStop>
    <busStop id="1148313194" name="Baltimore Penn Station" lane="70856126_0" startPos="157.02" endPos="357.02" friendlyPos="true" lines="LR">
        <access lane="1065376180#0_0" pos="0.00" length="48.23" friendlyPos="1"/>
        <access lane="1065376180#1_0" pos="0.00" length="57.85" friendlyPos="1"/>
        <access lane="1065376183#1_0" pos="0.20" length="55.98" friendlyPos="1"/>
        <access lane="1065376185_0" pos="0.20" length="54.24" friendlyPos="1"/>
        <access lane="69530989#2_0" pos="17.73" length="51.25" friendlyPos="1"/>
    </busStop>
    <busStop id="1148313198" name="Baltimore Penn Station" lane="169849477_0" startPos="344.96" endPos="544.96" friendlyPos="true" lines="Penn">
        <access lane="-766150218_0" pos="0.00" length="27.10" friendlyPos="1"/>
        <access lane="-766150219_0" pos="0.00" length="8.90" friendlyPos="1"/>
        <access lane="-946390750#0_0" pos="57.36" length="16.63" friendlyPos="1"/>
        <access lane="766150219_0" pos="89.93" length="7.17" friendlyPos="1"/>
        <access lane="833243507_0" pos="25.54" length="11.83" friendlyPos="1"/>
    </busStop>
    <busStop id="1148313241" name="Baltimore Penn Station" lane="69545484#0_0" startPos="344.31" endPos="544.31" friendlyPos="true" lines="Vermonter Northeast Regional Carolinian Palmetto">
        <access lane="-766150218_0" pos="0.00" length="26.33" friendlyPos="1"/>
        <access lane="-766150219_0" pos="0.00" length="14.13" friendlyPos="1"/>
        <access lane="-946390750#0_0" pos="58.19" length="22.56" friendlyPos="1"/>
        <access lane="766150219_0" pos="89.93" length="11.66" friendlyPos="1"/>
        <access lane="833243507_0" pos="24.71" length="17.76" friendlyPos="1"/>
    </busStop>
    <busStop id="1148313266" name="Baltimore Penn Station" lane="69545486#0_0" startPos="347.68" endPos="547.68" friendlyPos="true">
        <access lane="-766150218_0" pos="0.00" length="31.49" friendlyPos="1"/>
        <access lane="-766150219_0" pos="0.00" length="7.14" friendlyPos="1"/>
        <access lane="-946390750#0_0" pos="55.31" length="8.49" friendlyPos="1"/>
        <access lane="766150219_0" pos="89.93" length="8.68" friendlyPos="1"/>
        <access lane="833243507_0" pos="27.59" length="3.69" friendlyPos="1"/>
    </busStop>
    <busStop id="1282179861" lane="501194904_0" startPos="0.00" endPos="15.00" friendlyPos="true"/>
    <busStop id="1285206581" lane="436184202#3_0" startPos="7.54" endPos="22.54" friendlyPos="true"/>
    <busStop id="1399426280" name="Cold Spring Lane &amp; Greenspring Avenue Far-side Westbound" lane="425001832_0" startPos="1.17" endPos="16.17" friendlyPos="true"/>
    <busStop id="1825396407" lane="974654199_0" startPos="65.82" endPos="80.82" friendlyPos="true"/>
    <busStop id="1825396580" lane="522339573#1_0" startPos="0.00" endPos="15.00" friendlyPos="true"/>
    <busStop id="1974235938" lane="-186672435#0_0" startPos="20.19" endPos="35.19" friendlyPos="true"/>
    <busStop id="1990938847" lane="107263469#3_0" startPos="67.05" endPos="82.05" friendlyPos="true" lines="67"/>
    <busStop id="2028132779" lane="192254092_0" startPos="9.63" endPos="24.63" friendlyPos="true" lines="310"/>
    <busStop id="2028132781" lane="192254092_0" startPos="30.00" endPos="45.00" friendlyPos="true" lines="69 70 75 310"/>
    <busStop id="2041360596" lane="98289467#1_0" startPos="10.53" endPos="25.53" friendlyPos="true" lines="PR 310"/>
    <busStop id="2047576244" name="Mondawmin" lane="194234266#3_0" startPos="48.56" endPos="63.56" friendlyPos="true"/>
    <busStop id="2047576262" name="Mondawmin" lane="502233202#1_0" startPos="6.64" endPos="21.64" friendlyPos="true"/>
    <busStop id="2047576266" name="Mondawmin" lane="451551741#1_0" startPos="15.14" endPos="30.14" friendlyPos="true"/>
    <busStop id="2047576275" name="Mondawmin" lane="502233202#1_0" startPos="25.77" endPos="40.77" friendlyPos="true"/>
    <busStop id="2047576276" name="Mondawmin" lane="451551741#1_0" startPos="8.68" endPos="23.68" friendlyPos="true" lines="79"/>
    <busStop id="2047576286" name="Mondawmin" lane="502233200#1_0" startPos="3.67" endPos="18.67" friendlyPos="true"/>
    <busStop id="2047576288" name="Mondawmin" lane="5996123#1_0" startPos="54.15" endPos="69.15" friendlyPos="true" lines="29"/>
    <busStop id="2047576298" name="Mondawmin" lane="451551762#0_0" startPos="0.00" endPos="0.20" friendlyPos="true"/>
    <busStop id="2047576300" name="Mondawmin" lane="5996123#1_0" startPos="38.30" endPos="53.30" friendlyPos="true"/>
    <busStop id="2055577697" lane="279676296#1_0" startPos="9.62" endPos="24.62" friendlyPos="true" lines="73"/>
    <busStop id="2061844596" lane="107438752#2_0" startPos="64.92" endPos="79.92" friendlyPos="true" lines="PR 56 71"/>
    <busStop id="2061918595" lane="195773994_0" startPos="45.25" endPos="60.25" friendlyPos="true"/>
    <busStop id="2061918600" lane="83073948#2_0" startPos="9.47" endPos="24.47" friendlyPos="true"/>
    <busStop id="2078243846" lane="197613653#3_0" startPos="40.84" endPos="55.84" friendlyPos="true"/>
    <busStop id="2080753744" lane="113272703#1_0" startPos="5.32" endPos="30.32" friendlyPos="true"/>
    <busStop id="2185006332" name="Desoto &amp; Wimarco" lane="208173127#10_0" startPos="34.13" endPos="49.13" friendlyPos="true"/>
    <busStop id="2192909417" lane="522340305#1_0" startPos="4.82" endPos="19.82" friendlyPos="true"/>
    <busStop id="2339955575" name="North Avenue &amp; Guilford Avenue" lane="225185503#1_0" startPos="76.28" endPos="91.28" friendlyPos="true"/>
    <busStop id="2341520725" lane="207525366#0_0" startPos="2.40" endPos="17.40" friendlyPos="true"/>
    <busStop id="2466650866" name="North Avenue &amp; Madison Avenue Far-side Eastbound" lane="451737390_0" startPos="0.64" endPos="15.64" friendlyPos="true" lines="YW"/>
    <busStop id="2466650901" lane="120487096#1_0" startPos="5.38" endPos="20.38" friendlyPos="true"/>
    <busStop id="2466650902" lane="69542473#1_0" startPos="20.41" endPos="35.41" friendlyPos="true"/>
    <busStop id="2516605830" name="Hudson &amp; Baylis" lane="244330235_0" startPos="0.00" endPos="15.00" friendlyPos="true"/>
    <busStop id="256525877" name="Mount Royal / University of Baltimore" lane="201855692#0_0" startPos="0.00" endPos="111.57" friendlyPos="true" lines="LR">
        <access lane="1065376159#0_0" pos="0.00" length="26.50" friendlyPos="1"/>
        <access lane="1065376191#0_0" pos="0.20" length="26.72" friendlyPos="1"/>
        <access lane="1065376191#2_0" pos="15.46" length="4.46" friendlyPos="1"/>
        <access lane="1065376192_0" pos="15.85" length="10.45" friendlyPos="1"/>
        <access lane="970194496#0_0" pos="2.17" length="23.19" friendlyPos="1"/>
    </busStop>
    <busStop id="266637247" name="North Avenue" lane="834046097#2_0" startPos="0.00" endPos="54.29" friendlyPos="true" lines="LR">
        <access lane="1040127495_0" pos="1.87" length="3.00" friendlyPos="1"/>
        <access lane="70856104#0_0" pos="0.00" length="5.44" friendlyPos="1"/>
        <access lane="70856104#3_0" pos="14.03" length="9.86" friendlyPos="1"/>
        <access lane="70856104#4_0" pos="0.00" length="10.96" friendlyPos="1"/>
        <access lane="70856136#2_0" pos="12.14" length="13.71" friendlyPos="1"/>
    </busStop>
    <busStop id="268119984" name="Camden Yards" lane="834074204#3_0" startPos="0.00" endPos="200.00" friendlyPos="true" lines="LR">
        <access lane="1083855545#1_0" pos="0.00" length="6.61" friendlyPos="1"/>
        <access lane="1083856297_0" pos="92.99" length="6.67" friendlyPos="1"/>
        <access lane="1083875172#0_0" pos="0.10" length="9.15" friendlyPos="1"/>
        <access lane="1083875172#1_0" pos="0.20" length="1.75" friendlyPos="1"/>
        <access lane="1083902067#1_0" pos="95.43" length="12.51" friendlyPos="1"/>
    </busStop>
    <busStop id="268121066" name="Convention Center" lane="201855692#51_0" startPos="0.00" endPos="93.55" friendlyPos="true" lines="LR">
        <access lane="1083875170_0" pos="6.44" length="5.38" friendlyPos="1"/>
        <access lane="1083875171_0" pos="86.98" length="9.97" friendlyPos="1"/>
        <access lane="70990337#2_0" pos="0.20" length="15.29" friendlyPos="1"/>
        <access lane="70990337#4_0" pos="0.00" length="13.82" friendlyPos="1"/>
        <access lane="70990337#5_0" pos="0.00" length="16.62" friendlyPos="1"/>
    </busStop>
    <busStop id="268127431" name="Centre Street" lane="201855692#22_0" startPos="0.00" endPos="95.30" friendlyPos="true" lines="LR">
        <access lane="-5991883#0_0" pos="38.75" length="36.92" friendlyPos="1"/>
        <access lane="393742144#6_0" pos="0.20" length="30.06" friendlyPos="1"/>
        <access lane="393742144#7_0" pos="3.84" length="17.86" friendlyPos="1"/>
        <access lane="393742144#9_0" pos="0.00" length="27.87" friendlyPos="1"/>
        <access lane="98117556#2_0" pos="15.48" length="15.07" friendlyPos="1"/>
    </busStop>
    <busStop id="268134107" name="Hamburg Street" lane="201855686#0_0" startPos="127.46" endPos="327.46" friendlyPos="true" lines="LR">
        <access lane="-185463292#0_0" pos="0.00" length="18.22" friendlyPos="1"/>
        <access lane="-186985205_0" pos="1.96" length="9.19" friendlyPos="1"/>
        <access lane="-24645647_0" pos="94.92" length="14.23" friendlyPos="1"/>
        <access lane="186985205_0" pos="88.82" length="6.19" friendlyPos="1"/>
        <access lane="525070239_0" pos="141.56" length="19.03" friendlyPos="1"/>
    </busStop>
    <busStop id="288290287" name="Mondawmin" lane="70767201_0" startPos="1508.36" endPos="1708.36" friendlyPos="true" lines="M">
        <access lane="5996123#1_0" pos="15.81" length="15.67" friendlyPos="1"/>
        <access lane="877651211#1_0" pos="25.62" length="22.07" friendlyPos="1"/>
        <access lane="877651232#0_0" pos="27.29" length="3.67" friendlyPos="1"/>