<?xml version="1.0" encoding="UTF-8"?>

<!-- generated on 2023-05-31 10:03:27.883651 by $Id: ptlines2flows.py v1_3_1+0313-ccb31df3eb jakob.erdmann@dlr.de 2019-09-02 13:26:32 +0200 $ v1_16_0+0000-94ec4c6cd72
  options: 
-->

<routes xmlns:xsi="http://www.w3.org/2001/XMLSchema-instance" xsi:noNamespaceSchemaLocation="http://sumo.dlr.de/xsd/routes_file.xsd">
    <vType id="pt_bus" vClass="bus" speedFactor="0.95"/>
    <vType id="pt_tram" vClass="tram" speedFactor="1.0"/>
    <vType id="pt_train" vClass="rail"/>
    <vType id="pt_subway" vClass="rail_urban"/>
    <vType id="pt_light_rail" vClass="rail_urban"/>
    <vType id="pt_monorail" vClass="rail_urban"/>
    <vType id="pt_trolleybus" vClass="bus" speedFactor="0.95"/>
    <vType id="pt_minibus" vClass="bus" speedFactor="0.95"/>
    <vType id="pt_share_taxi" vClass="taxi" speedFactor="0.95"/>
    <vType id="pt_aerialway" vClass="rail_urban" length="2.5" width="2" personCapacity="4"/>
    <vType id="pt_ferry" vClass="ship"/>
    <trip id="0_bus_784:0" type="pt_bus" depart="0.0" departLane="best" from="451734614#1" to="451734614#1">
        <stop busStop="6967843801" duration="30"/>
    </trip>
    <trip id="1_bus_8576:0" type="pt_bus" depart="3.0" departLane="best" from="451737390" to="451737390">
        <stop busStop="2466650866" duration="30"/>
    </trip>
    <trip id="2_bus_783:0" type="pt_bus" depart="6.0" departLane="best" from="543404810#0" to="543404810#0">
        <stop busStop="6967862419" duration="30"/>
    </trip>
    <trip id="3_bus_2602:0" type="pt_bus" depart="11.0" departLane="best" from="1055296799" to="24671744">
        <stop busStop="-7167585619" duration="30"/>
    </trip>
    <trip id="4_bus_2602:1" type="pt_bus" depart="15.0" departLane="best" from="24671691" to="51535544#1">
        <stop busStop="-7167585619" duration="30"/>
    </trip>
    <trip id="5_train_Vermonter:0" type="pt_train" depart="15.0" departLane="best" from="-499202507" to="1025705365">
        <stop busStop="1148313142" duration="30"/>
    </trip>
    <trip id="6_train_Vermonter:1" type="pt_train" depart="17.0" departLane="best" from="1025705363" to="956582501">
        <stop busStop="1148313241" duration="30"/>
    </trip>
    <trip id="7_train_Vermonter:2" type="pt_train" depart="19.0" departLane="best" from="-499202507" to="1025705365">
        <stop busStop="1148313142" duration="30"/>
    </trip>
    <trip id="8_train_Acela:0" type="pt_train" depart="27.0" departLane="best" from="1025705363" to="169849507">
        <stop busStop="1148313180" duration="30"/>
    </trip>
    <trip id="9_train_Acela:1" type="pt_train" depart="28.0" departLane="best" from="1025705363" to="169849507">
        <stop busStop="1148313180" duration="30"/>
    </trip>
    <trip id="10_train_Acela:2" type="pt_train" depart="30.0" departLane="best" from="-499202507" to="1025705365">
        <stop busStop="1148313142" duration="30"/>
    </trip>
    <trip id="11_train_Acela:3" type="pt_train" depart="34.0" departLane="best" from="-499202507" to="1025705365">
        <stop busStop="1148313142" duration="30"/>
    </trip>
    <trip id="12_train_Acela:4" type="pt_train" depart="34.0" departLane="best" from="-499202507" to="1025705365">
        <stop busStop="1148313142" duration="30"/>
    </trip>
    <trip id="13_train_Acela:5" type="pt_train" depart="35.0" departLane="best" from="-499202507" to="1025705365">
        <stop busStop="1148313142" duration="30"/>
    </trip>
    <trip id="14_train_Acela:6" type="pt_train" depart="38.0" departLane="best" from="1025705363" to="169849507">
        <stop busStop="1148313180" duration="30"/>
    </trip>
    <trip id="15_train_Acela:7" type="pt_train" depart="41.0" departLane="best" from="1025705363" to="169849507">
        <stop busStop="1148313180" duration="30"/>
    </trip>
    <trip id="16_train_Acela:8" type="pt_train" depart="42.0" departLane="best" from="1025705363" to="169849507">
        <stop busStop="1148313180" duration="30"/>
    </trip>
    <trip id="17_train_Northeast_Regional:0" type="pt_train" depart="42.0" departLane="best" from="1025705363" to="956582501">
        <stop busStop="1148313241" duration="30"/>
    </trip>
    <trip id="18_train_Northeast_Regional:1" type="pt_train" depart="47.0" departLane="best" from="1025705363" to="956582501">
        <stop busStop="1148313241" duration="30"/>
    </trip>
    <trip id="19_train_Northeast_Regional:2" type="pt_train" depart="48.0" departLane="best" from="1025705363" to="956582501">
        <stop busStop="1148313241" duration="30"/>
    </trip>
    <trip id="20_train_Northeast_Regional:3" type="pt_train" depart="51.0" departLane="best" from="-499202507" to="1025705365">
        <stop busStop="1148313142" duration="30"/>
    </trip>
    <trip id="21_train_Northeast_Regional:4" type="pt_train" depart="52.0" departLane="best" from="-499202507" to="1025705365">
        <stop busStop="1148313142" duration="30"/>
    </trip>
    <trip id="22_train_Northeast_Regional:5" type="pt_train" depart="54.0" departLane="best" from="1025705363" to="956582501">
        <stop busStop="1148313241" duration="30"/>
    </trip>
    <trip id="23_train_Northeast_Regional:6" type="pt_train" depart="55.0" departLane="best" from="1025705363" to="956582501">
        <stop busStop="1148313241" duration="30"/>
    </trip>
    <trip id="24_train_Northeast_Regional:7" type="pt_train" depart="58.0" departLane="best" from="1025705363" to="956582501">
        <stop busStop="1148313241" duration="30"/>
    </trip>
    <trip id="25_train_Northeast_Regional:8" type="pt_train" depart="58.0" departLane="best" from="1025705363" to="956582501">
        <stop busStop="1148313241" duration="30"/>
    </trip>
    <trip id="26_train_Northeast_Regional:9" type="pt_train" depart="59.0" departLane="best" from="1025705363" to="956582501">
        <stop busStop="1148313241" duration="30"/>
    </trip>
    <trip id="27_train_Northeast_Regional:10" type="pt_train" depart="60.0" departLane="best" from="1025705363" to="956582501">
        <stop busStop="1148313241" duration="30"/>
    </trip>
    <trip id="28_train_Northeast_Regional:11" type="pt_train" depart="65.0" departLane="best" from="1025705363" to="956582501">
        <stop busStop="1148313241" duration="30"/>
    </trip>
    <trip id="29_train_Northeast_Regional:12" type="pt_train" depart="66.0" departLane="best" from="1025705363" to="956582501">
        <stop busStop="1148313241" duration="30"/>
    </trip>
    <trip id="30_train_Northeast_Regional:13" type="pt_train" depart="71.0" departLane="best" from="-499202507" to="1025705365">
        <stop busStop="1148313142" duration="30"/>
    </trip>
    <trip id="31_train_Northeast_Regional:14" type="pt_train" depart="72.0" departLane="best" from="-499202507" to="1025705365">
        <stop busStop="1148313142" duration="30"/>
    </trip>
    <trip id="32_train_Northeast_Regional:15" type="pt_train" depart="77.0" departLane="best" from="-499202507" to="1025705365">
        <stop busStop="1148313142" duration="30"/>
    </trip>
    <trip id="33_train_Northeast_Regional:16" type="pt_train" depart="79.0" departLane="best" from="-499202507" to="1025705365">
        <stop busStop="1148313142" duration="30"/>
    </trip>
    <trip id="34_train_Northeast_Regional:17" type="pt_train" depart="91.0" departLane="best" from="-499202507" to="1025705365">
        <stop busStop="1148313142" duration="30"/>
    </trip>
    <trip id="35_train_Northeast_Regional:18" type="pt_train" depart="92.0" departLane="best" from="-499202507" to="1025705365">
        <stop busStop="1148313142" duration="30"/>
    </trip>
    <trip id="36_train_Northeast_Regional:19" type="pt_train" depart="93.0" departLane="best" from="-499202507" to="1025705365">
        <stop busStop="1148313142" duration="30"/>
    </trip>
    <trip id="37_train_Northeast_Regional:20" type="pt_train" depart="94.0" departLane="best" from="1025705363" to="956582501">
        <stop busStop="1148313241" duration="30"/>
    </trip>
    <trip id="38_train_Northeast_Regional:21" type="pt_train" depart="98.0" departLane="best" from="1025705363" to="956582501">
        <stop busStop="1148313241" duration="30"/>
    </trip>
    <trip id="39_train_Northeast_Regional:22" type="pt_train" depart="99.0" departLane="best" from="1025705363" to="956582501">
        <stop busStop="1148313241" duration="30"/>
    </trip>
    <trip id="40_train_Northeast_Regional:23" type="pt_train" depart="102.0" departLane="best" from="1025705363" to="956582501">
        <stop busStop="1148313241" duration="30"/>
    </trip>
    <trip id="41_train_Northeast_Regional:24" type="pt_train" depart="107.0" departLane="best" from="1025705363" to="956582501">
        <stop busStop="1148313241" duration="30"/>
    </trip>
    <trip id="42_train_Northeast_Regional:25" type="pt_train" depart="111.0" departLane="best" from="1025705363" to="956582501">
        <stop busStop="1148313241" duration="30"/>
    </trip>
    <trip id="43_train_Northeast_Regional:26" type="pt_train" depart="114.0" departLane="best" from="1025705363" to="956582501">
        <stop busStop="1148313241" duration="30"/>
    </trip>
    <trip id="44_train_Northeast_Regional:27" type="pt_train" depart="114.0" departLane="best" from="1025705363" to="956582501">
        <stop busStop="1148313241" duration="30"/>
    </trip>
    <trip id="45_train_Northeast_Regional:28" type="pt_train" depart="119.0" departLane="best" from="-499202507" to="1025705365">
        <stop busStop="1148313142" duration="30"/>
    </trip>
    <trip id="46_train_Northeast_Regional:29" type="pt_train" depart="120.0" departLane="best" from="-499202507" to="1025705365">
        <stop busStop="1148313142" duration="30"/>
    </trip>
    <trip id="47_train_Northeast_Regional:30" type="pt_train" depart="125.0" departLane="best" from="-499202507" to="1025705365">
        <stop busStop="1148313142" duration="30"/>
    </trip>
    <trip id="48_train_Northeast_Regional:31" type="pt_train" depart="126.0" departLane="best" from="-499202507" to="1025705365">
        <stop busStop="1148313142" duration="30"/>
    </trip>
    <trip id="49_train_Northeast_Regional:32" type="pt_train" depart="127.0" departLane="best" from="-499202507" to="1025705365">
        <stop busStop="1148313142" duration="30"/>
    </trip>
    <trip id="50_train_Northeast_Regional:33" type="pt_train" depart="128.0" departLane="best" from="-499202507" to="1025705365">
        <stop busStop="1148313142" duration="30"/>
    </trip>
    <trip id="51_train_Northeast_Regional:34" type="pt_train" depart="128.0" departLane="best" from="-499202507" to="1025705365">
        <stop busStop="1148313142" duration="30"/>
    </trip>
    <trip id="52_train_Northeast_Regional:35" type="pt_train" depart="131.0" departLane="best" from="-499202507" to="1025705365">
        <stop busStop="1148313142" duration="30"/>
    </trip>
    <trip id="53_train_Northeast_Regional:36" type="pt_train" depart="131.0" departLane="best" from="-499202507" to="1025705365">
        <stop busStop="1148313142" duration="30"/>
    </trip>
    <trip id="54_train_Northeast_Regional:37" type="pt_train" depart="132.0" departLane="best" from="-499202507" to="1025705365">
        <stop busStop="1148313142" duration="30"/>
    </trip>
    <trip id="55_train_Northeast_Regional:38" type="pt_train" depart="132.0" departLane="best" from="-499202507" to="1025705365">
        <stop busStop="1148313142" duration="30"/>
    </trip>
    <trip id="56_train_Northeast_Regional:39" type="pt_train" depart="133.0" departLane="best" from="-499202507" to="1025705365">
        <stop busStop="1148313142" duration="30"/>
    </trip>
    <trip id="57_train_Northeast_Regional:40" type="pt_train" depart="134.0" departLane="best" from="-499202507" to="1025705365">
        <stop busStop="1148313142" duration="30"/>
    </trip>
    <trip id="58_train_Northeast_Regional:41" type="pt_train" depart="136.0" departLane="best" from="-499202507" to="1025705365">
        <stop busStop="1148313142" duration="30"/>
    </trip>
    <trip id="59_train_Northeast_Regional:42" type="pt_train" depart="137.0" departLane="best" from="1025705363" to="956582501">
        <stop busStop="1148313241" duration="30"/>
    </trip>
    <trip id="60_train_Northeast_Regional:43" type="pt_train" depart="137.0" departLane="best" from="1025705363" to="956582501">
        <stop busStop="1148313241" duration="30"/>
    </trip>
    <trip id="61_train_Northeast_Regional:44" type="pt_train" depart="138.0" departLane="best" from="1025705363" to="956582501">
        <stop busStop="1148313241" duration="30"/>
    </trip>
    <trip id="62_train_Northeast_Regional:45" type="pt_train" depart="139.0" departLane="best" from="1025705363" to="956582501">
        <stop busStop="1148313241" duration="30"/>
    </trip>
    <trip id="63_train_Northeast_Regional:46" type="pt_train" depart="141.0" departLane="best" from="1025705363" to="956582501">
        <stop busStop="1148313241" duration="30"/>
    </trip>
    <trip id="64_train_Carolinian:0" type="pt_train" depart="142.0" departLane="best" from="1025705363" to="956582501">
        <stop busStop="1148313241" duration="30"/>
    </trip>
    <trip id="65_train_Palmetto:0" type="pt_train" depart="147.0" departLane="best" from="1025705363" to="956582501">
        <stop busStop="1148313241" duration="30"/>
    </trip>
    <trip id="66_train_Cardinal:0" type="pt_train" depart="147.0" departLane="best" from="-499202507" to="1025705365">
        <stop busStop="1148313142" duration="30"/>
    </trip>
    <trip id="67_train_Crescent:0" type="pt_train" depart="149.0" departLane="best" from="-499202507" to="1025705365">
        <stop busStop="1148313142" duration="30"/>
    </trip>
    <trip id="68_train_Penn:0" type="pt_train" depart="149.0" departLane="best" from="99251616#0" to="956582501">
        <stop busStop="1148081604" duration="30"/>
        <stop busStop="1148313198" duration="30"/>
    </trip>
    <trip id="69_train_Penn:1" type="pt_train" depart="157.0" departLane="best" from="99251616#0" to="956582501">
        <stop busStop="1148313198" duration="30"/>
    </trip>
    <trip id="70_train_Penn:2" type="pt_train" depart="158.0" departLane="best" from="-499202507" to="1025705365">
        <stop busStop="1148313142" duration="30"/>
    </trip>
    <trip id="71_train_Penn:3" type="pt_train" depart="158.0" departLane="best" from="-499202507" to="1025705365">
        <stop busStop="1148313142" duration="30"/>
        <stop busStop="1148084160" duration="30"/>
    </trip>
    <trip id="72_train_Penn:4" type="pt_train" depart="159.0" departLane="best" from="1025697176#1" to="1025705365">
        <stop busStop="1148084160" duration="30"/>
    </trip>
    <trip id="73_train_Penn:5" type="pt_train" depart="159.0" departLane="best" from="99251616#0" to="169849477">
        <stop busStop="1148081604" duration="30"/>
    </trip>
    <trip id="74_train_Penn:6" type="pt_train" depart="160.0" departLane="best" from="99251616#0" to="956582501">
        <stop busStop="1148081604" duration="30"/>
        <stop busStop="1148313198" duration="30"/>
    </trip>
    <trip id="75_train_Penn:7" type="pt_train" depart="160.0" departLane="best" from="-499202507" to="1025705365">
        <stop busStop="1148313142" duration="30"/>
        <stop busStop="1148084160" duration="30"/>
    </trip>
    <trip id="76_train_Vermonter:3" type="pt_train" depart="160.0" departLane="best" from="1025705363" to="956582501">
        <stop busStop="1148313241" duration="30"/>
    </trip>
    <trip id="77_subway_M:0" type="pt_subway" depart="165.0" departLane="best" from="834843616" to="833957356#1">
        <stop busStop="844091659" duration="30"/>
        <stop busStop="844091805" duration="30"/>
        <stop busStop="7785026032" duration="30"/>
        <stop busStop="844091769" duration="30"/>
        <stop busStop="844091819" duration="30"/>
        <stop busStop="844091731" duration="30"/>
        <stop busStop="844091835" duration="30"/>
        <stop busStop="844091796" duration="30"/>
        <stop busStop="844073914" duration="30"/>
        <stop busStop="946178554" duration="30"/>
    </trip>
    <trip id="78_light_rail_LR:0" type="pt_light_rail" depart="166.0" departLane="best" from="70848694" to="834074200">
        <stop busStop="49415325" duration="30"/>
        <stop busStop="49517298" duration="30"/>
        <stop busStop="266637247" duration="30"/>
        <stop busStop="256525877" duration="30"/>
        <stop busStop="845372006" duration="30"/>
        <stop busStop="268127431" duration="30"/>
        <stop busStop="845372098" duration="30"/>
        <stop busStop="845911032" duration="30"/>
        <stop busStop="268121066" duration="30"/>
        <stop busStop="268119984" duration="30"/>
        <stop busStop="268134107" duration="30"/>
    </trip>
    <trip id="79_bus_38:0" type="pt_bus" depart="167.0" departLane="best" from="208502687" to="208502687">
        <stop busStop="9768396582" duration="30"/>
    </trip>
    <trip id="80_bus_Light_Rail_Shuttle:_Falls_Road_to_Camden_Yards:0" type="pt_bus" depart="173.0" departLane="best" from="501246618#1" to="501246618#1">
        <stop busStop="9784108977" duration="30"/>
    </trip>
    <trip id="81_train_Acela:9" type="pt_train" depart="178.0" departLane="best" from="-499202507" to="1025705365">
        <stop busStop="1148313142" duration="30"/>
    </trip>
    <trip id="82_train_Acela:10" type="pt_train" depart="179.0" departLane="best" from="1025705363" to="169849507">
        <stop busStop="1148313180" duration="30"/>
    </trip>
    <trip id="83_train_Acela:11" type="pt_train" depart="184.0" departLane="best" from="1025705363" to="169849507">
        <stop busStop="1148313180" duration="30"/>
    </trip>
    <trip id="84_train_Acela:12" type="pt_train" depart="187.0" departLane="best" from="1025705363" to="169849507">
        <stop busStop="1148313180" duration="30"/>
    </trip>
    <trip id="85_train_Acela:13" type="pt_train" depart="188.0" departLane="best" from="-499202507" to="1025705365">
        <stop busStop="1148313142" duration="30"/>
    </trip>
    <trip id="86_train_Northeast_Regional:47" type="pt_train" depart="189.0" departLane="best" from="1025705363" to="956582501">
        <stop busStop="1148313241" duration="30"/>
    </trip>
    <trip id="87_train_Northeast_Regional:48" type="pt_train" depart="194.0" departLane="best" from="1025705363" to="956582501">
        <stop busStop="1148313241" duration="30"/>
    </trip>
    <trip id="88_train_Northeast_Regional:49" type="pt_train" depart="201.0" departLane="best" from="1025705363" to="956582501">
        <stop busStop="1148313241" duration="30"/>
    </trip>
    <trip id="89_train_Northeast_Regional:50" type="pt_train" depart="202.0" departLane="best" from="-499202507" to="1025705365">
        <stop busStop="1148313142" duration="30"/>
    </trip>
    <trip id="90_train_Northeast_Regional:51" type="pt_train" depart="203.0" departLane="best" from="-499202507" to="1025705365">
        <stop busStop="1148313142" duration="30"/>
    </trip>
    <trip id="91_train_Northeast_Regional:52" type="pt_train" depart="204.0" departLane="best" from="1025705363" to="956582501">
        <stop busStop="1148313241" duration="30"/>
    </trip>
    <trip id="92_train_Northeast_Regional:53" type="pt_train" depart="218.0" departLane="best" from="1025705363" to="956582501">
        <stop busStop="1148313241" duration="30"/>
    </trip>
    <trip id="93_train_Northeast_Regional:54" type="pt_train" depart="222.0" departLane="best" from="1025705363" to="956582501">
        <stop busStop="1148313241" duration="30"/>
    </trip>
    <trip id="94_train_Northeast_Regional:55" type="pt_train" depart="227.0" departLane="best" from="1025705363" to="956582501">
        <stop busStop="1148313241" duration="30"/>
    </trip>
    <trip id="95_train_Northeast_Regional:56" type="pt_train" depart="227.0" departLane="best" from="-499202507" to="1025705365">
        <stop busStop="1148313142" duration="30"/>
    </trip>
    <trip id="96_train_Northeast_Regional:57" type="pt_train" depart="227.0" departLane="best" from="-499202507" to="1025705365">
        <stop busStop="1148313142" duration="30"/>
    </trip>
    <trip id="97_bus_95:0" type="pt_bus" depart="228.0" departLane="best" from="1083028810" to="424998857#1">
        <stop busStop="-6131821633" duration="30"/>
    </trip>
    <trip id="98_train_Silver_Meteor:0" type="pt_train" depart="237.0" departLane="best" from="-499202507" to="1025705365">
        <stop busStop="1148313142" duration="30"/>
    </trip>
    <trip id="99_train_Silver_Star:0" type="pt_train" depart="239.0" departLane="best" from="-499202507" to="1025705365">
        <stop busStop="1148313142" duration="30"/>
    </trip>
    <trip id="100_train_Carolinian:1" type="pt_train" depart="240.0" departLane="best" from="-499202507" to="1025705365">
        <stop busStop="1148313142" duration="30"/>
    </trip>
    <trip id="101_bus_51:0" type="pt_bus" depart="241.0" departLane="best" from="107263469#3" to="59665141#4">
        <stop busStop="6152778520" duration="30"/>
    </trip>
    <trip id="102_bus_52:0" type="pt_bus" depart="251.0" departLane="best" from="-192311460#0" to="-132381968#0">
        <stop busStop="6125897445" duration="30"/>
    </trip>
    <trip id="103_bus_105:0" type="pt_bus" depart="253.0" departLane="best" from="6007300#2" to="-98102326#0">
        <stop busStop="6162727240" duration="30"/>
    </trip>
    <trip id="104_bus_105:1" type="pt_bus" depart="253.0" departLane="best" from="98102326#0" to="6007300#2">
        <stop busStop="6162727243" duration="30"/>
    </trip>
    <trip id="105_bus_103:0" type="pt_bus" depart="253.0" departLane="best" from="107263469#3" to="500555014#4">
        <stop busStop="6160554074" duration="30"/>
        <stop busStop="6160554081" duration="30"/>
    </trip>
    <trip id="106_bus_103:1" type="pt_bus" depart="253.0" departLane="best" from="546710567#0" to="107263469#3">
        <stop busStop="6133912988" duration="30"/>
    </trip>
    <trip id="107_bus_54:0" type="pt_bus" depart="253.0" departLane="best" from="279676296#1" to="424993017#1">
        <stop busStop="6117276214" duration="30"/>
    </trip>
    <trip id="108_bus_54:1" type="pt_bus" depart="254.0" departLane="best" from="279676296#1" to="424993017#1">
        <stop busStop="6117276214" duration="30"/>
    </trip>
    <trip id="109_bus_154:0" type="pt_bus" depart="258.0" departLane="best" from="279676296#1" to="424993017#1">
        <stop busStop="6117276214" duration="30"/>
    </trip>
    <trip id="110_bus_154:1" type="pt_bus" depart="260.0" departLane="best" from="279676296#1" to="424993017#1">
        <stop busStop="6117276214" duration="30"/>
    </trip>
    <trip id="111_bus_21:0" type="pt_bus" depart="262.0" departLane="best" from="-112908687" to="-186672435#0">
        <stop busStop="6160554070" duration="30"/>
    </trip>
    <trip id="112_train_Palmetto:1" type="pt_train" depart="265.0" departLane="best" from="-499202507" to="1025705365">
        <stop busStop="1148313142" duration="30"/>
    </trip>
    <trip id="113_bus_22:0" type="pt_bus" depart="269.0" departLane="best" from="5996123#1" to="-197879513">
        <stop busStop="6978453510" duration="30"/>
    </trip>
    <trip id="114_bus_22:1" type="pt_bus" depart="272.0" departLane="best" from="-1088221642" to="5996123#1">
        <stop busStop="6978453509" duration="30"/>
    </trip>
    <trip id="115_light_rail_LR:1" type="pt_light_rail" depart="273.0" departLane="best" from="71214999#3" to="70856126">
        <stop busStop="845911023" duration="30"/>
        <stop busStop="845911431" duration="30"/>
        <stop busStop="845911382" duration="30"/>
        <stop busStop="845371928" duration="30"/>
        <stop busStop="845372077" duration="30"/>
        <stop busStop="845371957" duration="30"/>
        <stop busStop="844812026" duration="30"/>
        <stop busStop="1148313194" duration="30"/>
    </trip>
    <trip id="116_light_rail_LR:2" type="pt_light_rail" depart="275.0" departLane="best" from="70848694" to="834074200">
        <stop busStop="49415325" duration="30"/>
        <stop busStop="49517298" duration="30"/>
        <stop busStop="266637247" duration="30"/>
        <stop busStop="256525877" duration="30"/>
        <stop busStop="845372006" duration="30"/>
        <stop busStop="268127431" duration="30"/>
        <stop busStop="845372098" duration="30"/>
        <stop busStop="845911032" duration="30"/>
        <stop busStop="268121066" duration="30"/>
        <stop busStop="268119984" duration="30"/>
        <stop busStop="268134107" duration="30"/>
    </trip>
    <trip id="117_bus_28:0" type="pt_bus" depart="280.0" departLane="best" from="-204145051#7" to="116069138#8">
        <stop busStop="6981812752" duration="30"/>
    </trip>
    <trip id="118_bus_28:1" type="pt_bus" depart="283.0" departLane="best" from="116069138#8" to="204145051#7">
        <stop busStop="6981819150" duration="30"/>
        <stop busStop="6981817232" duration="30"/>
    </trip>
    <trip id="119_bus_411:0" type="pt_bus" depart="285.0" departLane="best" from="49642256" to="521782236#1">
        <stop busStop="6152778520" duration="30"/>
    </trip>
    <trip id="120_bus_410:0" type="pt_bus" depart="291.0" departLane="best" from="49642256" to="542335285#1">
        <stop busStop="6152778520" duration="30"/>
        <stop busStop="6133918983" duration="30"/>
    </trip>
    <trip id="121_bus_420:0" type="pt_bus" depart="291.0" departLane="best" from="49642256" to="521782236#1">
        <stop busStop="6152778520" duration="30"/>
    </trip>
    <trip id="122_train_Northeast_Regional:58" type="pt_train" depart="300.0" departLane="best" from="-499202507" to="1025705365">
        <stop busStop="1148313142" duration="30"/>
    </trip>
    <trip id="123_train_Northeast_Regional:59" type="pt_train" depart="301.0" departLane="best" from="-499202507" to="1025705365">
        <stop busStop="1148313142" duration="30"/>
    </trip>
    <trip id="124_train_Penn:8" type="pt_train" depart="303.0" departLane="best" from="-499202507" to="1025705365">
        <stop busStop="1148313142" duration="30"/>
        <stop busStop="1148084160" duration="30"/>
    </trip>
    <trip id="125_train_Penn:9" type="pt_train" depart="305.0" departLane="best" from="99251616#0" to="956582501">
        <stop busStop="1148081604" duration="30"/>
        <stop busStop="1148313198" duration="30"/>
    </trip>
    <trip id="126_bus_150:0" type="pt_bus" depart="310.0" departLane="best" from="542293699#0" to="-197613651#0">
        <stop busStop="4933408058" duration="30"/>
    </trip>
    <trip id="127_bus_160:0" type="pt_bus" depart="313.0" departLane="best" from="49642256" to="98289467#1">
        <stop busStop="4933408059" duration="30"/>
    </trip>
    <trip id="128_bus_160:1" type="pt_bus" depart="317.0" departLane="best" from="49642256" to="98289467#1">
        <stop busStop="4933408059" duration="30"/>
    </trip>
    <trip id="129_bus_83:0" type="pt_bus" depart="318.0" departLane="best" from="194234266#3" to="949869767#11">
        <stop busStop="6981779109" duration="30"/>
    </trip>
    <trip id="130_bus_83:1" type="pt_bus" depart="321.0" departLane="best" from="-949869767#11" to="194234266#3">
        <stop busStop="-6981779108" duration="30"/>
    </trip>
    <trip id="131_bus_RD:0" type="pt_bus" depart="322.0" departLane="best" from="132381968#0" to="188783439#2">
        <stop busStop="-6125894136" duration="30"/>
    </trip>
    <trip id="132_bus_RD:1" type="pt_bus" depart="323.0" departLane="best" from="192254092" to="-132381968#0">
        <stop busStop="6125897445" duration="30"/>
    </trip>
    <trip id="133_bus_RD:2" type="pt_bus" depart="323.0" departLane="best" from="132381968#0" to="188783439#2">
        <stop busStop="-6125894136" duration="30"/>
    </trip>
    <trip id="134_bus_RD:3" type="pt_bus" depart="325.0" departLane="best" from="192254092" to="-132381968#0">
        <stop busStop="6125897445" duration="30"/>
    </trip>
    <trip id="135_bus_BR:0" type="pt_bus" depart="326.0" departLane="best" from="-822091931#1" to="202623988#11">
        <stop busStop="-5078269809" duration="30"/>
    </trip>
    <trip id="136_bus_BR:1" type="pt_bus" depart="329.0" departLane="best" from="202623988#11" to="822091931#1">
        <stop busStop="6133930561" duration="30"/>
        <stop busStop="6133931757" duration="30"/>
    </trip>
    <trip id="137_bus_BR:2" type="pt_bus" depart="330.0" departLane="best" from="202623988#11" to="822091931#1">
        <stop busStop="6133930561" duration="30"/>
        <stop busStop="6133931757" duration="30"/>
    </trip>
    <trip id="138_bus_BR:3" type="pt_bus" depart="331.0" departLane="best" from="-822091931#1" to="202623988#11">
        <stop busStop="-5078269809" duration="30"/>
    </trip>
    <trip id="139_bus_OR:0" type="pt_bus" depart="333.0" departLane="best" from="502201044#2" to="513573130">
        <stop busStop="6117447345" duration="30"/>
    </trip>
    <trip id="140_bus_OR:1" type="pt_bus" depart="334.0" departLane="best" from="513573140" to="502201044#2">
        <stop busStop="6117447346" duration="30"/>
    </trip>
    <trip id="141_bus_GD:0" type="pt_bus" depart="336.0" departLane="best" from="98289435#0" to="-186672435#0">
        <stop busStop="6967935456" duration="30"/>
    </trip>
    <trip id="142_bus_GD:1" type="pt_bus" depart="342.0" departLane="best" from="-186672435#0" to="6004418#3">
        <stop busStop="6967927922" duration="30"/>
    </trip>
    <trip id="143_bus_GD:2" type="pt_bus" depart="346.0" departLane="best" from="98289435#0" to="-658035496#0">
        <stop busStop="6967935456" duration="30"/>
    </trip>
    <trip id="144_bus_GD:3" type="pt_bus" depart="347.0" departLane="best" from="-658035496#0" to="6004418#3">
        <stop busStop="6967927922" duration="30"/>
    </trip>